
 Created by Python create_sdf_string function

 25  0  0  0  0  0  0  0  0  0999 V2000
    0.0000    0.0000    0.0000 C   0  0  0  0  0  0  0  0  0  0  0  0
   -0.2707    0.6399   -2.0884 C   0  0  0  0  0  0  0  0  0  0  0  0
    1.2517   -2.0712   -0.5851 C   0  0  0  0  0  0  0  0  0  0  0  0
   -0.6609    0.3406    1.7744 C   0  0  0  0  0  0  0  0  0  0  0  0
    0.9563   -0.9421    1.2982 C   0  0  0  0  0  0  0  0  0  0  0  0
   -1.0582    0.8097   -0.5104 C   0  0  0  0  0  0  0  0  0  0  0  0
    0.5767    1.5473   -0.5022 C   0  0  0  0  0  0  0  0  0  0  0  0
   -1.7138   -1.6615    0.0252 C   0  0  0  0  0  0  0  0  0  0  0  0
   -0.8401   -1.3920   -1.8949 C   0  0  0  0  0  0  0  0  0  0  0  0
    0.4748    0.2137    2.0461 C   0  0  0  0  0  0  0  0  0  0  0  0
    1.5939    0.6456    0.5458 C   0  0  0  0  0  0  0  0  0  0  0  0
    0.5378    0.3761    1.0156 C   0  0  0  0  0  0  0  0  0  0  0  0
    1.1649   -1.0609    0.5446 C   0  0  0  0  0  0  0  0  0  0  0  0
    1.6593    0.4496   -0.3058 C   0  0  0  0  0  0  0  0  0  0  0  0
   -0.9552   -1.2359   -1.0320 C   0  0  0  0  0  0  0  0  0  0  0  0
   -0.1293    1.4263    1.3032 C   0  0  0  0  0  0  0  0  0  0  0  0
   -1.1572   -0.1729   -1.2658 C   0  0  0  0  0  0  0  0  0  0  0  0
   -0.3633    0.5283    2.6492 C   0  0  0  0  0  0  0  0  0  0  0  0
    0.8190    1.7938   -0.2525 C   0  0  0  0  0  0  0  0  0  0  0  0
   -1.0817    0.1553   -0.8217 C   0  0  0  0  0  0  0  0  0  0  0  0
   -0.0873    1.7644   -1.0248 C   0  0  0  0  0  0  0  0  0  0  0  0
    2.1131   -1.0548   -0.6250 C   0  0  0  0  0  0  0  0  0  0  0  0
    2.0092   -0.4740   -0.1820 C   0  0  0  0  0  0  0  0  0  0  0  0
   -2.0883   -0.6758    0.6546 C   0  0  0  0  0  0  0  0  0  0  0  0
    0.3989    2.1540   -1.4254 C   0  0  0  0  0  0  0  0  0  0  0  0
M  END
$$$$

 Created by Python create_sdf_string function

 25 43  0  0  0  0  0  0  0  0999 V2000
    8.4238   -9.1727   17.9718 O   0  0  0  0  0  0  0  0  0  0  0  0
    7.9364  -10.3144   18.4832 Cl  0  0  0  0  0  0  0  0  0  0  0  0
    6.8660   -6.7869   16.4457 P   0  0  0  0  0  0  0  0  0  0  0  0
    7.7261   -8.0231   16.3044 S   0  0  0  0  0  0  0  0  0  0  0  0
    9.2812   -8.7949   16.0665 C   0  0  0  0  0  0  0  0  0  0  0  0
    8.2475   -8.5455   17.1732 C   0  0  0  0  0  0  0  0  0  0  0  0
    6.3772   -6.7750   17.8354 C   0  0  0  0  0  0  0  0  0  0  0  0
    7.0489   -8.1710   15.7602 F   0  0  0  0  0  0  0  0  0  0  0  0
    7.1044   -9.5937   16.2022 S   0  0  0  0  0  0  0  0  0  0  0  0
    7.8709   -9.6112   16.6181 Br  0  0  0  0  0  0  0  0  0  0  0  0
    8.2229   -8.0352   17.1778 N   0  0  0  0  0  0  0  0  0  0  0  0
    6.6735  -10.0570   17.8319 F   0  0  0  0  0  0  0  0  0  0  0  0
    7.9409   -8.0335   17.1759 O   0  0  0  0  0  0  0  0  0  0  0  0
   10.3088   -8.4645   17.0046 P   0  0  0  0  0  0  0  0  0  0  0  0
    7.6746   -9.4528   17.0133 F   0  0  0  0  0  0  0  0  0  0  0  0
    6.7832   -8.3877   17.4337 He  0  0  0  0  0  0  0  0  0  0  0  0
    7.4147   -8.7458   16.2296 He  0  0  0  0  0  0  0  0  0  0  0  0
    9.7613   -9.7636   16.4783 He  0  0  0  0  0  0  0  0  0  0  0  0
    6.6498   -9.5831   16.8309 He  0  0  0  0  0  0  0  0  0  0  0  0
    8.4743   -8.2751   16.1519 He  0  0  0  0  0  0  0  0  0  0  0  0
    8.4832   -9.2065   17.5678 He  0  0  0  0  0  0  0  0  0  0  0  0
    7.1783   -8.1742   15.9113 He  0  0  0  0  0  0  0  0  0  0  0  0
    7.9699   -7.4814   18.6457 He  0  0  0  0  0  0  0  0  0  0  0  0
    8.0323   -5.8851   16.6497 He  0  0  0  0  0  0  0  0  0  0  0  0
    7.1799   -7.5947   18.3138 He  0  0  0  0  0  0  0  0  0  0  0  0
  1  4  4  0
  1  7  3  0
  1  8  2  0
  1  9  1  0
  1 13  4  0
  1 15  4  0
  2  5  3  0
  2  6  2  0
  2  7  3  0
  2  8  2  0
  2 10  1  0
  2 13  2  0
  2 15  1  0
  3  4  3  0
  3  5  4  0
  3  6  2  0
  3  9  4  0
  3 13  4  0
  4  8  4  0
  4  9  3  0
  4 10  2  0
  4 12  1  0
  4 13  4  0
  5  8  3  0
  5 10  2  0
  5 13  3  0
  6  8  4  0
  6  9  4  0
  6 11  1  0
  6 13  2  0
  6 15  4  0
  7 11  1  0
  8 10  1  0
  8 11  3  0
  8 13  4  0
  8 14  3  0
  9 12  1  0
  9 13  1  0
  9 14  1  0
 10 13  1  0
 12 14  1  0
 13 14  3  0
 14 15  2  0
M  END
$$$$

 Created by Python create_sdf_string function

 25  0  0  0  0  0  0  0  0  0999 V2000
    5.7762   -8.0032   17.5329 F   0  0  0  0  0  0  0  0  0  0  0  0
    6.7887   -8.6882   15.9433 F   0  0  0  0  0  0  0  0  0  0  0  0
    8.7540   -8.3289   18.3900 F   0  0  0  0  0  0  0  0  0  0  0  0
    9.6617   -8.9831   16.3339 F   0  0  0  0  0  0  0  0  0  0  0  0
    7.4879   -9.1560   18.1711 F   0  0  0  0  0  0  0  0  0  0  0  0
    6.7126   -6.3874   15.9999 F   0  0  0  0  0  0  0  0  0  0  0  0
    7.6802   -7.5000   15.9918 F   0  0  0  0  0  0  0  0  0  0  0  0
    9.1442   -8.5333   15.8703 F   0  0  0  0  0  0  0  0  0  0  0  0
    5.6434   -9.4299   16.7795 F   0  0  0  0  0  0  0  0  0  0  0  0
    8.5716   -7.7465   15.8062 F   0  0  0  0  0  0  0  0  0  0  0  0
    8.5336   -8.0798   17.3809 F   0  0  0  0  0  0  0  0  0  0  0  0
    6.4467   -6.8148   17.7150 F   0  0  0  0  0  0  0  0  0  0  0  0
    8.8243   -8.6414   17.7483 F   0  0  0  0  0  0  0  0  0  0  0  0
    6.4042   -7.8481   15.7115 F   0  0  0  0  0  0  0  0  0  0  0  0
    6.3500   -7.7172   15.5175 F   0  0  0  0  0  0  0  0  0  0  0  0
    8.5507   -6.5402   18.4576 F   0  0  0  0  0  0  0  0  0  0  0  0
    6.2872   -9.5671   15.8554 F   0  0  0  0  0  0  0  0  0  0  0  0
    8.4952   -5.7092   16.5115 F   0  0  0  0  0  0  0  0  0  0  0  0
    7.3769   -9.3795   16.2433 F   0  0  0  0  0  0  0  0  0  0  0  0
    8.4431   -7.2113   17.4636 F   0  0  0  0  0  0  0  0  0  0  0  0
    6.8864   -7.2348   18.1549 F   0  0  0  0  0  0  0  0  0  0  0  0
    5.5917   -9.5939   17.9591 F   0  0  0  0  0  0  0  0  0  0  0  0
    7.8464   -7.4409   17.2260 F   0  0  0  0  0  0  0  0  0  0  0  0
   10.0391   -7.5224   17.6801 F   0  0  0  0  0  0  0  0  0  0  0  0
    7.2625   -9.3167   17.0633 F   0  0  0  0  0  0  0  0  0  0  0  0
M  END
$$$$

 Created by Python create_sdf_string function

 25 16  0  0  0  0  0  0  0  0999 V2000
    6.5731   -9.0398   15.3381 P   0  0  0  0  0  0  0  0  0  0  0  0
    7.6331   -9.0343   17.4045 F   0  0  0  0  0  0  0  0  0  0  0  0
    7.3808   -9.2050   18.7658 N   0  0  0  0  0  0  0  0  0  0  0  0
    6.4939   -7.2147   17.0170 Cl  0  0  0  0  0  0  0  0  0  0  0  0
    9.3379   -5.1319   15.9163 Cl  0  0  0  0  0  0  0  0  0  0  0  0
    7.1946   -8.4528   17.6840 Cl  0  0  0  0  0  0  0  0  0  0  0  0
    5.3380   -7.6674   13.9394 O   0  0  0  0  0  0  0  0  0  0  0  0
    5.1486  -10.0560   16.7263 Br  0  0  0  0  0  0  0  0  0  0  0  0
    7.1228   -6.8817   17.9966 B   0  0  0  0  0  0  0  0  0  0  0  0
    5.5566  -10.2909   17.8944 F   0  0  0  0  0  0  0  0  0  0  0  0
    8.8071   -8.1715   17.5334 F   0  0  0  0  0  0  0  0  0  0  0  0
    6.7607   -6.8287   18.5586 He  0  0  0  0  0  0  0  0  0  0  0  0
   10.9863   -7.9371   16.9896 He  0  0  0  0  0  0  0  0  0  0  0  0
    9.9055   -7.6025   16.6524 He  0  0  0  0  0  0  0  0  0  0  0  0
   10.2211   -8.2898   13.6743 He  0  0  0  0  0  0  0  0  0  0  0  0
    5.7180   -8.4984   17.6683 He  0  0  0  0  0  0  0  0  0  0  0  0
    5.7282   -7.0657   18.3698 He  0  0  0  0  0  0  0  0  0  0  0  0
    9.4718  -10.3347   18.6204 He  0  0  0  0  0  0  0  0  0  0  0  0
    6.6084   -7.3347   15.1541 He  0  0  0  0  0  0  0  0  0  0  0  0
    8.1261   -7.1913   20.5436 He  0  0  0  0  0  0  0  0  0  0  0  0
    6.0278   -6.4083   15.7495 He  0  0  0  0  0  0  0  0  0  0  0  0
    8.9920   -8.8252   16.5000 He  0  0  0  0  0  0  0  0  0  0  0  0
    7.6689   -7.5418   15.7473 He  0  0  0  0  0  0  0  0  0  0  0  0
    9.6455   -6.6655   16.5903 He  0  0  0  0  0  0  0  0  0  0  0  0
    5.8379   -8.9526   16.3267 He  0  0  0  0  0  0  0  0  0  0  0  0
  1  5  2  0
  1  6  3  0
  1  7  1  0
  1 10  4  0
  2  6  4  0
  2  7  4  0
  2  8  2  0
  3  6  3  0
  3  7  3  0
  3  8  1  0
  4  8  2  0
  4 10  3  0
  5  7  3  0
  6  7  2  0
  6  8  4  0
  7 11  3  0
M  END
$$$$

 Created by Python create_sdf_string function

 25  1  0  0  0  0  0  0  0  0999 V2000
    7.0325   -6.7175   18.1301 F   0  0  0  0  0  0  0  0  0  0  0  0
    6.5819   -8.9144   15.7176 F   0  0  0  0  0  0  0  0  0  0  0  0
    7.5948   -8.7140   17.1874 F   0  0  0  0  0  0  0  0  0  0  0  0
   10.1331   -7.0030   17.7884 F   0  0  0  0  0  0  0  0  0  0  0  0
    6.9934   -8.4203   18.4872 F   0  0  0  0  0  0  0  0  0  0  0  0
    9.3900   -6.8668   17.1547 F   0  0  0  0  0  0  0  0  0  0  0  0
    6.4132   -7.1283   16.8193 F   0  0  0  0  0  0  0  0  0  0  0  0
    8.6498   -8.0819   15.0085 F   0  0  0  0  0  0  0  0  0  0  0  0
    5.2603   -8.4009   17.5329 F   0  0  0  0  0  0  0  0  0  0  0  0
    8.9006   -5.3017   16.3560 F   0  0  0  0  0  0  0  0  0  0  0  0
    7.1054   -8.1718   17.5327 F   0  0  0  0  0  0  0  0  0  0  0  0
    5.8693   -7.2956   18.2201 F   0  0  0  0  0  0  0  0  0  0  0  0
    8.9342   -8.5200   18.1325 F   0  0  0  0  0  0  0  0  0  0  0  0
    6.5276   -7.0343   15.3631 F   0  0  0  0  0  0  0  0  0  0  0  0
    5.4523   -7.8390   15.0854 F   0  0  0  0  0  0  0  0  0  0  0  0
    8.8979   -6.8566   18.8419 F   0  0  0  0  0  0  0  0  0  0  0  0
    5.0547   -9.4459   16.8455 F   0  0  0  0  0  0  0  0  0  0  0  0
    6.2925   -6.5341   15.8621 F   0  0  0  0  0  0  0  0  0  0  0  0
    8.6195   -8.3314   16.4062 C   0  0  0  0  0  0  0  0  0  0  0  0
    7.6644   -7.2286   15.7595 F   0  0  0  0  0  0  0  0  0  0  0  0
    7.4491   -6.6496   17.8679 F   0  0  0  0  0  0  0  0  0  0  0  0
    5.3717   -9.4859   17.9195 F   0  0  0  0  0  0  0  0  0  0  0  0
    9.0472   -7.7358   17.6971 F   0  0  0  0  0  0  0  0  0  0  0  0
    9.3101   -6.0797   17.1186 F   0  0  0  0  0  0  0  0  0  0  0  0
    5.2555   -8.6108   16.3231 F   0  0  0  0  0  0  0  0  0  0  0  0
  1 21  1  0
M  END
$$$$

 Created by Python create_sdf_string function

 25 13  0  0  0  0  0  0  0  0999 V2000
    9.4247   -7.3954   15.5184 N   0  0  0  0  0  0  0  0  0  0  0  0
    9.7714   -8.1741   15.0780 P   0  0  0  0  0  0  0  0  0  0  0  0
    6.3015   -8.9124   18.5737 N   0  0  0  0  0  0  0  0  0  0  0  0
    9.7493   -4.0762   17.6951 C   0  0  0  0  0  0  0  0  0  0  0  0
    6.6322   -7.6367   14.1098 Cl  0  0  0  0  0  0  0  0  0  0  0  0
    4.0691  -10.1240   18.1894 C   0  0  0  0  0  0  0  0  0  0  0  0
    5.9659   -6.6732   16.3332 N   0  0  0  0  0  0  0  0  0  0  0  0
    8.1864   -8.3117   17.9879 F   0  0  0  0  0  0  0  0  0  0  0  0
    7.1576   -6.0656   18.6950 He  0  0  0  0  0  0  0  0  0  0  0  0
    8.4749   -9.4126   16.0811 He  0  0  0  0  0  0  0  0  0  0  0  0
    8.2823   -9.1074   17.9761 He  0  0  0  0  0  0  0  0  0  0  0  0
    5.2966   -5.6168   18.0805 He  0  0  0  0  0  0  0  0  0  0  0  0
   10.7989   -6.8281   17.5763 He  0  0  0  0  0  0  0  0  0  0  0  0
    7.5318   -5.8283   17.0659 He  0  0  0  0  0  0  0  0  0  0  0  0
    7.9180   -9.1590   18.2209 He  0  0  0  0  0  0  0  0  0  0  0  0
    4.9878   -8.3587   16.1682 He  0  0  0  0  0  0  0  0  0  0  0  0
    9.2095   -7.7389   18.0633 He  0  0  0  0  0  0  0  0  0  0  0  0
    4.7337   -6.5358   15.8267 He  0  0  0  0  0  0  0  0  0  0  0  0
    7.6080   -8.3760   18.7730 He  0  0  0  0  0  0  0  0  0  0  0  0
    7.5173   -5.5633   15.4624 He  0  0  0  0  0  0  0  0  0  0  0  0
    6.4518   -8.0179   17.2876 He  0  0  0  0  0  0  0  0  0  0  0  0
    7.6418   -5.7546   19.1110 He  0  0  0  0  0  0  0  0  0  0  0  0
    5.3473  -10.3248   18.1038 He  0  0  0  0  0  0  0  0  0  0  0  0
    9.2720   -8.8517   17.0391 He  0  0  0  0  0  0  0  0  0  0  0  0
    4.8053   -9.2191   13.8769 He  0  0  0  0  0  0  0  0  0  0  0  0
  1  3  1  0
  1  4  4  0
  1  5  2  0
  2  4  2  0
  2  5  1  0
  2  8  2  0
  3  4  2  0
  3  6  4  0
  3  7  2  0
  4  7  1  0
  5  7  3  0
  6  7  1  0
  6  8  2  0
M  END
$$$$

 Created by Python create_sdf_string function

 25  0  0  0  0  0  0  0  0  0999 V2000
    7.8418   -6.2209   18.1463 F   0  0  0  0  0  0  0  0  0  0  0  0
    7.9824   -8.6034   16.0352 F   0  0  0  0  0  0  0  0  0  0  0  0
    8.1882   -8.3570   17.6155 F   0  0  0  0  0  0  0  0  0  0  0  0
    8.7786   -7.0964   16.0610 F   0  0  0  0  0  0  0  0  0  0  0  0
    5.9602   -6.7634   17.6313 F   0  0  0  0  0  0  0  0  0  0  0  0
    9.9954   -6.5916   17.8198 F   0  0  0  0  0  0  0  0  0  0  0  0
    8.2207   -5.8595   16.9242 F   0  0  0  0  0  0  0  0  0  0  0  0
    8.6894   -8.0344   15.4623 F   0  0  0  0  0  0  0  0  0  0  0  0
    6.0167   -8.7599   18.3180 F   0  0  0  0  0  0  0  0  0  0  0  0
    9.6431   -4.7306   17.4004 F   0  0  0  0  0  0  0  0  0  0  0  0
    7.6373   -8.4808   17.8880 F   0  0  0  0  0  0  0  0  0  0  0  0
    4.7018   -8.3935   16.3887 C   0  0  0  0  0  0  0  0  0  0  0  0
    9.3101   -7.3082   18.1639 F   0  0  0  0  0  0  0  0  0  0  0  0
    6.5294   -7.6145   15.1290 F   0  0  0  0  0  0  0  0  0  0  0  0
    4.8379   -7.1671   15.9900 F   0  0  0  0  0  0  0  0  0  0  0  0
    7.5230   -8.0479   18.3393 F   0  0  0  0  0  0  0  0  0  0  0  0
    4.4075   -9.3863   17.6472 F   0  0  0  0  0  0  0  0  0  0  0  0
    7.5939   -5.8677   15.8995 F   0  0  0  0  0  0  0  0  0  0  0  0
    6.0899   -8.1267   17.0348 C   0  0  0  0  0  0  0  0  0  0  0  0
    6.1081   -6.9530   16.1753 F   0  0  0  0  0  0  0  0  0  0  0  0
    8.6160   -5.6184   18.5946 F   0  0  0  0  0  0  0  0  0  0  0  0
    5.2073   -9.5711   17.8141 F   0  0  0  0  0  0  0  0  0  0  0  0
    8.8988   -8.2964   17.0101 F   0  0  0  0  0  0  0  0  0  0  0  0
    8.2875   -7.7983   17.7547 F   0  0  0  0  0  0  0  0  0  0  0  0
    4.9447   -8.7509   15.2927 F   0  0  0  0  0  0  0  0  0  0  0  0
M  END
$$$$

 Created by Python create_sdf_string function

 25 40  0  0  0  0  0  0  0  0999 V2000
    7.0051   -7.5593   14.4156 S   0  0  0  0  0  0  0  0  0  0  0  0
    7.6434   -7.4080   17.3239 F   0  0  0  0  0  0  0  0  0  0  0  0
   10.9427   -5.6751   15.1484 P   0  0  0  0  0  0  0  0  0  0  0  0
    9.3623   -8.1317   14.5383 N   0  0  0  0  0  0  0  0  0  0  0  0
   10.6891   -5.3335   17.1149 N   0  0  0  0  0  0  0  0  0  0  0  0
    5.7797   -8.6257   17.0602 Se  0  0  0  0  0  0  0  0  0  0  0  0
    8.4881   -7.7222   16.8360 O   0  0  0  0  0  0  0  0  0  0  0  0
    5.8671   -6.1991   15.5860 F   0  0  0  0  0  0  0  0  0  0  0  0
    4.1966   -5.9966   16.4501 F   0  0  0  0  0  0  0  0  0  0  0  0
    7.4706   -7.8997   18.2671 C   0  0  0  0  0  0  0  0  0  0  0  0
    3.8154  -12.3031   17.4260 C   0  0  0  0  0  0  0  0  0  0  0  0
    5.6647   -7.2426   15.4117 N   0  0  0  0  0  0  0  0  0  0  0  0
    5.9626   -8.9453   17.6837 C   0  0  0  0  0  0  0  0  0  0  0  0
   10.6770   -7.2992   17.1384 N   0  0  0  0  0  0  0  0  0  0  0  0
    5.6103   -8.2088   15.0349 Br  0  0  0  0  0  0  0  0  0  0  0  0
    8.6005   -5.6120   18.4189 He  0  0  0  0  0  0  0  0  0  0  0  0
    7.1025   -7.0150   16.1754 He  0  0  0  0  0  0  0  0  0  0  0  0
    5.9569   -6.9611   19.5244 He  0  0  0  0  0  0  0  0  0  0  0  0
    9.2520   -5.8645   16.2995 He  0  0  0  0  0  0  0  0  0  0  0  0
    6.5830   -7.9371   18.1540 He  0  0  0  0  0  0  0  0  0  0  0  0
    8.9103   -8.8224   18.8430 He  0  0  0  0  0  0  0  0  0  0  0  0
    8.1312   -7.4065   14.5947 He  0  0  0  0  0  0  0  0  0  0  0  0
    6.3477   -9.3451   17.0967 He  0  0  0  0  0  0  0  0  0  0  0  0
    8.6273   -6.2175   18.7836 He  0  0  0  0  0  0  0  0  0  0  0  0
    8.3215   -7.3825   18.1743 He  0  0  0  0  0  0  0  0  0  0  0  0
  1  5  2  0
  1  6  1  0
  1  8  4  0
  1  9  1  0
  1 10  3  0
  1 11  2  0
  1 12  4  0
  2  6  4  0
  2  8  2  0
  2 11  1  0
  2 14  1  0
  3  6  4  0
  3  9  3  0
  3 10  4  0
  3 11  3  0
  3 12  4  0
  3 14  4  0
  4  6  3  0
  4  7  1  0
  4  9  4  0
  4 10  4  0
  4 11  1  0
  4 14  4  0
  4 15  2  0
  5  6  1  0
  5  7  4  0
  5  8  1  0
  6  7  2  0
  6  8  1  0
  6 11  4  0
  6 14  1  0
  7  9  3  0
  7 13  4  0
  7 15  2  0
  8 14  2  0
  9 11  1  0
 10 15  3  0
 11 12  4  0
 11 13  1  0
 13 14  4  0
M  END
$$$$

 Created by Python create_sdf_string function

 25  2  0  0  0  0  0  0  0  0999 V2000
    9.4043   -5.2919   18.3401 C   0  0  0  0  0  0  0  0  0  0  0  0
    6.7989   -7.7542   15.1199 F   0  0  0  0  0  0  0  0  0  0  0  0
    7.6792   -7.4565   17.1552 F   0  0  0  0  0  0  0  0  0  0  0  0
    7.0869   -7.0709   16.1443 C   0  0  0  0  0  0  0  0  0  0  0  0
    6.2440   -7.6281   18.6885 F   0  0  0  0  0  0  0  0  0  0  0  0
   10.3088   -4.5953   16.1574 C   0  0  0  0  0  0  0  0  0  0  0  0
    9.3374   -5.2478   16.5676 C   0  0  0  0  0  0  0  0  0  0  0  0
    8.5360   -8.0840   15.2888 F   0  0  0  0  0  0  0  0  0  0  0  0
    6.4426   -8.2845   18.0681 F   0  0  0  0  0  0  0  0  0  0  0  0
   10.3046   -4.5933   17.2662 C   0  0  0  0  0  0  0  0  0  0  0  0
    8.8994   -8.0952   18.3542 F   0  0  0  0  0  0  0  0  0  0  0  0
    5.1880   -8.7804   17.0673 C   0  0  0  0  0  0  0  0  0  0  0  0
    8.5439   -7.7494   16.7889 C   0  0  0  0  0  0  0  0  0  0  0  0
    6.1334   -6.7308   15.6112 F   0  0  0  0  0  0  0  0  0  0  0  0
    4.6017   -7.2917   16.2500 F   0  0  0  0  0  0  0  0  0  0  0  0
    7.4334   -8.0220   17.9414 C   0  0  0  0  0  0  0  0  0  0  0  0
    4.5310  -10.3206   17.7825 F   0  0  0  0  0  0  0  0  0  0  0  0
    8.0610   -7.5463   15.1880 F   0  0  0  0  0  0  0  0  0  0  0  0
    6.0494   -9.3996   17.0285 F   0  0  0  0  0  0  0  0  0  0  0  0
    5.6423   -7.6858   15.5777 F   0  0  0  0  0  0  0  0  0  0  0  0
    9.4391   -5.7535   18.5583 F   0  0  0  0  0  0  0  0  0  0  0  0
    5.4464   -9.1439   17.6994 C   0  0  0  0  0  0  0  0  0  0  0  0
    9.9068   -6.5232   17.5084 F   0  0  0  0  0  0  0  0  0  0  0  0
    8.7114   -7.0668   18.0683 F   0  0  0  0  0  0  0  0  0  0  0  0
    5.4269   -8.6770   15.5800 F   0  0  0  0  0  0  0  0  0  0  0  0
  4 14  1  0
  8 18  1  0
M  END
$$$$

 Created by Python create_sdf_string function

 25 16  0  0  0  0  0  0  0  0999 V2000
    7.5720   -8.1420   18.0819 C   0  0  0  0  0  0  0  0  0  0  0  0
    6.4601   -8.8707   18.5805 O   0  0  0  0  0  0  0  0  0  0  0  0
   10.6562   -4.0669   16.4537 C   0  0  0  0  0  0  0  0  0  0  0  0
   10.3336   -4.4616   16.5636 C   0  0  0  0  0  0  0  0  0  0  0  0
    5.5596   -8.7478   17.4160 O   0  0  0  0  0  0  0  0  0  0  0  0
    7.7335   -6.8621   14.5851 F   0  0  0  0  0  0  0  0  0  0  0  0
    5.1434  -10.5772   18.9942 Cl  0  0  0  0  0  0  0  0  0  0  0  0
    8.5709   -4.4065   19.5194 N   0  0  0  0  0  0  0  0  0  0  0  0
   12.2959   -6.3341   18.0915 F   0  0  0  0  0  0  0  0  0  0  0  0
    9.0032   -6.6942   17.7950 I   0  0  0  0  0  0  0  0  0  0  0  0
    8.7143   -5.2525   18.2083 He  0  0  0  0  0  0  0  0  0  0  0  0
    6.9297   -7.9626   12.5020 He  0  0  0  0  0  0  0  0  0  0  0  0
    7.3058   -6.6210   16.5081 He  0  0  0  0  0  0  0  0  0  0  0  0
   10.1086   -3.6790   16.2153 He  0  0  0  0  0  0  0  0  0  0  0  0
    8.2043   -6.8322   16.9974 He  0  0  0  0  0  0  0  0  0  0  0  0
    6.9981   -6.5823   18.3292 He  0  0  0  0  0  0  0  0  0  0  0  0
   10.0573   -7.4801   17.4024 He  0  0  0  0  0  0  0  0  0  0  0  0
    6.7323   -7.7988   17.5299 He  0  0  0  0  0  0  0  0  0  0  0  0
    4.9390   -6.0760   15.2387 He  0  0  0  0  0  0  0  0  0  0  0  0
    4.8825   -9.3980   16.7351 He  0  0  0  0  0  0  0  0  0  0  0  0
    7.8036   -8.4494   16.8356 He  0  0  0  0  0  0  0  0  0  0  0  0
    3.5122  -11.0762   18.1525 He  0  0  0  0  0  0  0  0  0  0  0  0
    6.9496   -7.5662   14.7023 He  0  0  0  0  0  0  0  0  0  0  0  0
    6.0281   -9.2039   17.1579 He  0  0  0  0  0  0  0  0  0  0  0  0
    6.2766   -7.1303   14.3231 He  0  0  0  0  0  0  0  0  0  0  0  0
  1  4  4  0
  1  9  4  0
  1 10  2  0
  2  6  4  0
  2  7  2  0
  2  8  2  0
  3  4  1  0
  3  7  3  0
  3  8  3  0
  3 10  1  0
  4  5  2  0
  4  6  2  0
  5  6  3  0
  5  7  2  0
  6  7  3  0
  8 10  3  0
M  END
$$$$

 Created by Python create_sdf_string function

 25  1  0  0  0  0  0  0  0  0999 V2000
    9.5706   -5.2810   18.3383 C   0  0  0  0  0  0  0  0  0  0  0  0
    7.2525   -8.0615   14.6793 F   0  0  0  0  0  0  0  0  0  0  0  0
    7.7523   -7.9667   17.8440 C   0  0  0  0  0  0  0  0  0  0  0  0
    7.5834   -6.6457   16.3278 C   0  0  0  0  0  0  0  0  0  0  0  0
    6.0034   -8.8692   18.2927 C   0  0  0  0  0  0  0  0  0  0  0  0
   10.5708   -3.9535   16.6584 C   0  0  0  0  0  0  0  0  0  0  0  0
   10.1961   -3.9606   16.4497 C   0  0  0  0  0  0  0  0  0  0  0  0
    8.5332   -6.6403   17.1321 C   0  0  0  0  0  0  0  0  0  0  0  0
    7.5577   -6.7846   18.1259 F   0  0  0  0  0  0  0  0  0  0  0  0
   10.3037   -4.2477   16.7897 C   0  0  0  0  0  0  0  0  0  0  0  0
    9.6649   -7.0454   17.9179 C   0  0  0  0  0  0  0  0  0  0  0  0
    5.1638   -8.9034   17.3464 C   0  0  0  0  0  0  0  0  0  0  0  0
    6.6514   -7.9741   17.4560 C   0  0  0  0  0  0  0  0  0  0  0  0
    5.4904   -6.8017   15.4690 F   0  0  0  0  0  0  0  0  0  0  0  0
    4.6290   -9.2068   17.0649 C   0  0  0  0  0  0  0  0  0  0  0  0
    7.9061   -8.3087   16.7207 C   0  0  0  0  0  0  0  0  0  0  0  0
    4.0821  -10.3221   18.1045 C   0  0  0  0  0  0  0  0  0  0  0  0
    7.8101   -7.1385   15.2801 F   0  0  0  0  0  0  0  0  0  0  0  0
    4.7221  -10.1294   18.3328 C   0  0  0  0  0  0  0  0  0  0  0  0
    7.0057   -7.7249   15.4177 C   0  0  0  0  0  0  0  0  0  0  0  0
    9.6848   -4.8883   19.2848 C   0  0  0  0  0  0  0  0  0  0  0  0
    5.6937   -9.0721   17.2553 C   0  0  0  0  0  0  0  0  0  0  0  0
   10.8988   -5.5571   18.2874 C   0  0  0  0  0  0  0  0  0  0  0  0
    9.3898   -6.4132   18.0896 C   0  0  0  0  0  0  0  0  0  0  0  0
    6.3719   -7.2185   15.0814 C   0  0  0  0  0  0  0  0  0  0  0  0
 17 19  4  0
M  END
$$$$

 Created by Python create_sdf_string function

 25 38  0  0  0  0  0  0  0  0999 V2000
    7.6749   -7.2249   17.8559 N   0  0  0  0  0  0  0  0  0  0  0  0
    5.6118   -7.1038   17.9983 Br  0  0  0  0  0  0  0  0  0  0  0  0
    8.7373   -3.8851   16.2591 N   0  0  0  0  0  0  0  0  0  0  0  0
    7.0518   -7.1980   14.7290 S   0  0  0  0  0  0  0  0  0  0  0  0
    7.4422   -6.2098   19.3792 I   0  0  0  0  0  0  0  0  0  0  0  0
   10.8174   -4.5251   17.9989 P   0  0  0  0  0  0  0  0  0  0  0  0
    6.2528   -9.3345   18.8157 F   0  0  0  0  0  0  0  0  0  0  0  0
    6.0990   -5.9999   16.2816 P   0  0  0  0  0  0  0  0  0  0  0  0
    5.4686   -8.6648   17.7957 C   0  0  0  0  0  0  0  0  0  0  0  0
    4.6961  -12.1345   17.7291 S   0  0  0  0  0  0  0  0  0  0  0  0
    5.0426  -10.4721   16.9054 O   0  0  0  0  0  0  0  0  0  0  0  0
    6.6550   -5.9612   16.0307 P   0  0  0  0  0  0  0  0  0  0  0  0
    9.9108   -5.7148   18.6431 Cl  0  0  0  0  0  0  0  0  0  0  0  0
    5.6823   -7.0182   16.6340 F   0  0  0  0  0  0  0  0  0  0  0  0
    9.6291   -4.4254   17.9519 He  0  0  0  0  0  0  0  0  0  0  0  0
    7.0145   -7.4707   13.4937 He  0  0  0  0  0  0  0  0  0  0  0  0
    8.7701   -6.0917   16.4926 He  0  0  0  0  0  0  0  0  0  0  0  0
   10.3206   -3.3146   15.9337 He  0  0  0  0  0  0  0  0  0  0  0  0
    8.9584   -7.3552   15.6132 He  0  0  0  0  0  0  0  0  0  0  0  0
    5.4561   -8.0566   17.1033 He  0  0  0  0  0  0  0  0  0  0  0  0
    7.5999   -8.5425   16.0876 He  0  0  0  0  0  0  0  0  0  0  0  0
    8.0444   -6.1633   14.3847 He  0  0  0  0  0  0  0  0  0  0  0  0
    8.9345   -5.6938   19.2573 He  0  0  0  0  0  0  0  0  0  0  0  0
    4.6233  -10.2516   16.7636 He  0  0  0  0  0  0  0  0  0  0  0  0
   10.8941   -7.2274   18.9619 He  0  0  0  0  0  0  0  0  0  0  0  0
  1  5  2  0
  1  6  2  0
  1  7  3  0
  1  8  3  0
  1 10  2  0
  1 13  4  0
  2  3  2  0
  2  5  2  0
  2 11  1  0
  2 12  3  0
  2 13  3  0
  2 14  1  0
  3  7  2  0
  3  8  1  0
  3 10  2  0
  3 13  2  0
  3 14  4  0
  4  5  2  0
  4  7  2  0
  4  8  3  0
  4 10  1  0
  4 12  2  0
  4 13  3  0
  4 14  2  0
  5  6  1  0
  5 12  2  0
  6 11  1  0
  6 13  4  0
  6 14  3  0
  7 10  1  0
  8 10  2  0
  8 13  1  0
  9 12  1  0
  9 13  2  0
  9 14  1  0
 10 13  2  0
 11 12  4  0
 12 14  3  0
M  END
$$$$

 Created by Python create_sdf_string function

 25  4  0  0  0  0  0  0  0  0999 V2000
   10.1224   -4.5908   17.7078 C   0  0  0  0  0  0  0  0  0  0  0  0
    7.1926   -7.9062   14.9726 F   0  0  0  0  0  0  0  0  0  0  0  0
    8.0219   -7.4363   17.7236 C   0  0  0  0  0  0  0  0  0  0  0  0
    8.8380   -5.8931   16.7364 C   0  0  0  0  0  0  0  0  0  0  0  0
    5.8813   -7.5470   17.9292 F   0  0  0  0  0  0  0  0  0  0  0  0
    9.3588   -4.3946   16.2191 C   0  0  0  0  0  0  0  0  0  0  0  0
   10.1648   -3.8586   16.3072 C   0  0  0  0  0  0  0  0  0  0  0  0
    7.2263   -7.5178   15.3814 C   0  0  0  0  0  0  0  0  0  0  0  0
    7.8004   -6.6603   18.5332 F   0  0  0  0  0  0  0  0  0  0  0  0
   10.5348   -4.2865   17.8992 C   0  0  0  0  0  0  0  0  0  0  0  0
    8.5137   -7.7252   16.0666 F   0  0  0  0  0  0  0  0  0  0  0  0
    5.3717   -8.5817   17.0699 C   0  0  0  0  0  0  0  0  0  0  0  0
    5.7803   -9.0845   18.3130 F   0  0  0  0  0  0  0  0  0  0  0  0
    6.1913   -6.6722   15.9700 F   0  0  0  0  0  0  0  0  0  0  0  0
    5.3635   -8.8502   17.6022 C   0  0  0  0  0  0  0  0  0  0  0  0
    7.5333   -8.5253   16.1289 C   0  0  0  0  0  0  0  0  0  0  0  0
    4.4275  -10.6997   17.9590 C   0  0  0  0  0  0  0  0  0  0  0  0
    7.8329   -6.5531   15.2813 F   0  0  0  0  0  0  0  0  0  0  0  0
    4.9950  -10.2841   17.2640 C   0  0  0  0  0  0  0  0  0  0  0  0
    6.9022   -6.4285   15.8850 F   0  0  0  0  0  0  0  0  0  0  0  0
    9.6106   -5.7316   18.8447 C   0  0  0  0  0  0  0  0  0  0  0  0
    4.6366   -9.9606   17.2404 C   0  0  0  0  0  0  0  0  0  0  0  0
   10.1126   -6.8622   18.8240 F   0  0  0  0  0  0  0  0  0  0  0  0
   10.0205   -5.6477   18.6055 C   0  0  0  0  0  0  0  0  0  0  0  0
    5.5584   -7.5149   16.6575 F   0  0  0  0  0  0  0  0  0  0  0  0
  6  7  4  0
 17 19  4  0
 17 22  4  0
 19 22  4  0
M  END
$$$$

 Created by Python create_sdf_string function

 25 14  0  0  0  0  0  0  0  0999 V2000
    9.3073   -4.9861   18.5816 N   0  0  0  0  0  0  0  0  0  0  0  0
    9.4221   -7.4184   18.6842 F   0  0  0  0  0  0  0  0  0  0  0  0
    9.1673   -5.6076   14.5519 C   0  0  0  0  0  0  0  0  0  0  0  0
   10.6519   -2.8541   17.3165 O   0  0  0  0  0  0  0  0  0  0  0  0
    7.2518   -7.5323   14.9798 C   0  0  0  0  0  0  0  0  0  0  0  0
    5.2666   -9.0581   18.6189 O   0  0  0  0  0  0  0  0  0  0  0  0
    7.0198   -7.8852   15.6303 P   0  0  0  0  0  0  0  0  0  0  0  0
    9.2420   -5.9447   18.0063 N   0  0  0  0  0  0  0  0  0  0  0  0
    4.6608   -8.9271   16.5095 C   0  0  0  0  0  0  0  0  0  0  0  0
    8.5367   -8.2380   16.8291 He  0  0  0  0  0  0  0  0  0  0  0  0
    9.8124   -3.5875   18.1819 He  0  0  0  0  0  0  0  0  0  0  0  0
    6.4951   -5.5308   17.0291 He  0  0  0  0  0  0  0  0  0  0  0  0
    9.9098   -6.1672   14.8750 He  0  0  0  0  0  0  0  0  0  0  0  0
    6.7613   -8.5012   16.2852 He  0  0  0  0  0  0  0  0  0  0  0  0
    5.9028   -8.3927   18.7335 He  0  0  0  0  0  0  0  0  0  0  0  0
    5.1218   -8.3199   16.6292 He  0  0  0  0  0  0  0  0  0  0  0  0
    6.7610  -10.0431   20.3540 He  0  0  0  0  0  0  0  0  0  0  0  0
    5.6856   -6.6494   16.0254 He  0  0  0  0  0  0  0  0  0  0  0  0
    5.1959   -6.2404   16.2576 He  0  0  0  0  0  0  0  0  0  0  0  0
    3.5762  -10.0796   17.0020 He  0  0  0  0  0  0  0  0  0  0  0  0
    9.5131   -6.5285   15.8917 He  0  0  0  0  0  0  0  0  0  0  0  0
    4.8135  -10.3470   16.1544 He  0  0  0  0  0  0  0  0  0  0  0  0
   10.6178   -7.5138   21.6690 He  0  0  0  0  0  0  0  0  0  0  0  0
   10.1625   -6.2823   17.2268 He  0  0  0  0  0  0  0  0  0  0  0  0
    6.0139   -8.0599   17.4992 He  0  0  0  0  0  0  0  0  0  0  0  0
  1  3  2  0
  1  4  3  0
  1  9  2  0
  2  6  4  0
  2  8  4  0
  3  4  4  0
  3  6  1  0
  4  5  2  0
  4  8  1  0
  4  9  3  0
  5  7  1  0
  5  8  3  0
  7  8  1  0
  7  9  3  0
M  END
$$$$

 Created by Python create_sdf_string function

 25  2  0  0  0  0  0  0  0  0999 V2000
    9.9451   -5.1404   18.5528 C   0  0  0  0  0  0  0  0  0  0  0  0
    8.4576   -7.9617   17.0595 F   0  0  0  0  0  0  0  0  0  0  0  0
    9.4338   -7.2991   18.4711 F   0  0  0  0  0  0  0  0  0  0  0  0
   10.4049   -4.1787   18.0795 C   0  0  0  0  0  0  0  0  0  0  0  0
    7.2873   -6.3331   16.7458 F   0  0  0  0  0  0  0  0  0  0  0  0
    9.3482   -5.7339   15.7874 F   0  0  0  0  0  0  0  0  0  0  0  0
    9.0644   -5.1937   15.8517 C   0  0  0  0  0  0  0  0  0  0  0  0
    6.7774   -8.5722   16.4048 C   0  0  0  0  0  0  0  0  0  0  0  0
    6.1191   -8.4113   18.2643 C   0  0  0  0  0  0  0  0  0  0  0  0
   10.6248   -3.6962   17.1191 C   0  0  0  0  0  0  0  0  0  0  0  0
    7.5212   -7.6556   15.4321 F   0  0  0  0  0  0  0  0  0  0  0  0
    5.0065   -8.5341   16.7056 C   0  0  0  0  0  0  0  0  0  0  0  0
    6.3261   -8.6605   19.0776 F   0  0  0  0  0  0  0  0  0  0  0  0
    6.0568   -7.0325   15.9031 F   0  0  0  0  0  0  0  0  0  0  0  0
    5.2928   -9.1865   18.1420 C   0  0  0  0  0  0  0  0  0  0  0  0
    5.4008   -7.1226   15.9862 F   0  0  0  0  0  0  0  0  0  0  0  0
    3.7427   -9.4794   17.1661 C   0  0  0  0  0  0  0  0  0  0  0  0
    9.1869   -6.3055   16.4028 C   0  0  0  0  0  0  0  0  0  0  0  0
    4.9797   -9.6417   16.5341 C   0  0  0  0  0  0  0  0  0  0  0  0
    7.2549   -8.0709   15.7773 C   0  0  0  0  0  0  0  0  0  0  0  0
    9.5281   -5.9782   17.9990 C   0  0  0  0  0  0  0  0  0  0  0  0
    4.4617   -8.7981   16.7418 C   0  0  0  0  0  0  0  0  0  0  0  0
   10.0288   -6.5551   19.7026 F   0  0  0  0  0  0  0  0  0  0  0  0
    9.8259   -5.9765   17.5672 C   0  0  0  0  0  0  0  0  0  0  0  0
    6.1636   -8.0557   17.3335 C   0  0  0  0  0  0  0  0  0  0  0  0
  9 13  1  0
 11 20  1  0
M  END
$$$$

 Created by Python create_sdf_string function

 25 21  0  0  0  0  0  0  0  0999 V2000
   10.3591   -5.4438   18.1570 F   0  0  0  0  0  0  0  0  0  0  0  0
    8.3068   -6.9408   14.7553 C   0  0  0  0  0  0  0  0  0  0  0  0
    9.0847   -2.5622   16.8919 O   0  0  0  0  0  0  0  0  0  0  0  0
   10.2360   -4.4164   17.1101 P   0  0  0  0  0  0  0  0  0  0  0  0
    7.9173   -7.5313   14.2461 F   0  0  0  0  0  0  0  0  0  0  0  0
    3.6223   -9.2642   16.4909 F   0  0  0  0  0  0  0  0  0  0  0  0
    7.6794   -8.3716   20.0837 N   0  0  0  0  0  0  0  0  0  0  0  0
    6.9377   -6.2351   15.5481 F   0  0  0  0  0  0  0  0  0  0  0  0
   11.6056   -7.3866   20.4737 C   0  0  0  0  0  0  0  0  0  0  0  0
    9.6088   -6.6762   17.0825 C   0  0  0  0  0  0  0  0  0  0  0  0
    5.8877   -7.8764   17.6411 Se  0  0  0  0  0  0  0  0  0  0  0  0
    8.6852   -3.5603   17.2729 He  0  0  0  0  0  0  0  0  0  0  0  0
    7.7377   -8.2590   17.4013 He  0  0  0  0  0  0  0  0  0  0  0  0
   10.4548   -5.9733   18.4798 He  0  0  0  0  0  0  0  0  0  0  0  0
    6.6160   -5.7866   15.7940 He  0  0  0  0  0  0  0  0  0  0  0  0
    7.4554   -7.7911   16.0324 He  0  0  0  0  0  0  0  0  0  0  0  0
    5.4343  -10.0484   17.0620 He  0  0  0  0  0  0  0  0  0  0  0  0
    3.8638   -8.3603   19.0858 He  0  0  0  0  0  0  0  0  0  0  0  0
    4.7538   -7.0291   15.8810 He  0  0  0  0  0  0  0  0  0  0  0  0
    2.7033  -10.7925   17.5606 He  0  0  0  0  0  0  0  0  0  0  0  0
    9.6702   -5.0079   17.1479 He  0  0  0  0  0  0  0  0  0  0  0  0
    4.3214   -9.0898   16.9582 He  0  0  0  0  0  0  0  0  0  0  0  0
    6.5724   -8.3840   14.5277 He  0  0  0  0  0  0  0  0  0  0  0  0
    9.6654   -5.8882   16.9981 He  0  0  0  0  0  0  0  0  0  0  0  0
    4.5275   -8.3722   15.9892 He  0  0  0  0  0  0  0  0  0  0  0  0
  1  4  1  0
  1  7  2  0
  1 10  2  0
  1 11  2  0
  2  8  3  0
  2 10  3  0
  3  4  1  0
  3 10  1  0
  4  6  1  0
  4  9  4  0
  4 11  4  0
  5  8  1  0
  6  7  3  0
  6  8  2  0
  6 10  4  0
  6 11  3  0
  7  9  3  0
  8  9  1  0
  8 10  4  0
  8 11  3  0
  9 11  4  0
M  END
$$$$

 Created by Python create_sdf_string function

 25  1  0  0  0  0  0  0  0  0999 V2000
    9.7694   -4.1742   16.7936 C   0  0  0  0  0  0  0  0  0  0  0  0
    7.7792   -8.2766   17.3037 C   0  0  0  0  0  0  0  0  0  0  0  0
   10.1156   -5.9761   18.5843 C   0  0  0  0  0  0  0  0  0  0  0  0
   10.2351   -5.5408   18.3933 C   0  0  0  0  0  0  0  0  0  0  0  0
    6.9458   -6.3893   15.8448 C   0  0  0  0  0  0  0  0  0  0  0  0
    8.2323   -7.2251   15.5232 F   0  0  0  0  0  0  0  0  0  0  0  0
    9.8740   -3.7466   16.3378 C   0  0  0  0  0  0  0  0  0  0  0  0
    7.5571   -8.1199   16.2267 C   0  0  0  0  0  0  0  0  0  0  0  0
    5.2941   -9.4202   17.2342 C   0  0  0  0  0  0  0  0  0  0  0  0
   10.3419   -4.2439   17.1295 C   0  0  0  0  0  0  0  0  0  0  0  0
    7.8532   -7.9751   15.2826 F   0  0  0  0  0  0  0  0  0  0  0  0
    3.4971   -9.0434   16.7156 C   0  0  0  0  0  0  0  0  0  0  0  0
    7.9653   -8.1475   18.5105 F   0  0  0  0  0  0  0  0  0  0  0  0
    7.1476   -6.5453   15.7130 C   0  0  0  0  0  0  0  0  0  0  0  0
    4.5399   -9.3394   17.8998 C   0  0  0  0  0  0  0  0  0  0  0  0
    4.9486   -7.7041   16.0719 C   0  0  0  0  0  0  0  0  0  0  0  0
    3.0212   -9.8972   17.4882 C   0  0  0  0  0  0  0  0  0  0  0  0
    9.7088   -5.0503   17.0403 C   0  0  0  0  0  0  0  0  0  0  0  0
    4.1983   -8.9530   16.9830 C   0  0  0  0  0  0  0  0  0  0  0  0
    6.6034   -8.4323   15.3959 C   0  0  0  0  0  0  0  0  0  0  0  0
    9.4263   -5.9565   17.2241 C   0  0  0  0  0  0  0  0  0  0  0  0
    4.5171   -8.5742   16.3700 C   0  0  0  0  0  0  0  0  0  0  0  0
   10.2706   -6.8249   19.3463 F   0  0  0  0  0  0  0  0  0  0  0  0
    9.1901   -6.9255   17.5423 C   0  0  0  0  0  0  0  0  0  0  0  0
    6.0476   -8.2238   17.6346 C   0  0  0  0  0  0  0  0  0  0  0  0
  5 14  1  0
M  END
$$$$

 Created by Python create_sdf_string function

 25 59  0  0  0  0  0  0  0  0999 V2000
   10.8442   -4.7002   17.0097 C   0  0  0  0  0  0  0  0  0  0  0  0
    7.4294   -7.6167   16.5805 C   0  0  0  0  0  0  0  0  0  0  0  0
   10.2746   -6.3416   19.2299 C   0  0  0  0  0  0  0  0  0  0  0  0
    6.2792   -7.6155   15.7980 Br  0  0  0  0  0  0  0  0  0  0  0  0
    9.1519   -6.7411   15.2874 Cl  0  0  0  0  0  0  0  0  0  0  0  0
    9.1037   -3.7977   17.4540 P   0  0  0  0  0  0  0  0  0  0  0  0
    9.1240  -10.3800   14.3561 C   0  0  0  0  0  0  0  0  0  0  0  0
    4.2679   -9.5895   16.8096 P   0  0  0  0  0  0  0  0  0  0  0  0
    8.7025   -6.2279   16.7090 I   0  0  0  0  0  0  0  0  0  0  0  0
    8.5224   -7.3547   14.7062 N   0  0  0  0  0  0  0  0  0  0  0  0
    3.0237   -9.1892   16.6253 Cl  0  0  0  0  0  0  0  0  0  0  0  0
    7.9096   -7.8347   15.1232 Cl  0  0  0  0  0  0  0  0  0  0  0  0
    3.8456   -8.4035   19.1433 N   0  0  0  0  0  0  0  0  0  0  0  0
    5.7975   -6.1891   16.3065 O   0  0  0  0  0  0  0  0  0  0  0  0
    7.1254   -7.6781   17.2943 Se  0  0  0  0  0  0  0  0  0  0  0  0
   10.2158   -5.3209   17.2955 Se  0  0  0  0  0  0  0  0  0  0  0  0
    9.8822   -6.9211   18.1658 N   0  0  0  0  0  0  0  0  0  0  0  0
    6.5274   -9.6261   19.4068 N   0  0  0  0  0  0  0  0  0  0  0  0
   12.3883   -7.0914   18.6157 He  0  0  0  0  0  0  0  0  0  0  0  0
    8.9688   -7.6164   18.2952 He  0  0  0  0  0  0  0  0  0  0  0  0
    4.4533   -9.1130   17.9295 He  0  0  0  0  0  0  0  0  0  0  0  0
    9.2726   -5.0193   17.8925 He  0  0  0  0  0  0  0  0  0  0  0  0
    5.2016   -9.0609   15.5349 He  0  0  0  0  0  0  0  0  0  0  0  0
    2.5937  -10.1725   17.1262 He  0  0  0  0  0  0  0  0  0  0  0  0
   11.9401   -6.7640   19.4463 He  0  0  0  0  0  0  0  0  0  0  0  0
  1  4  1  0
  1  8  1  0
  1  9  1  0
  1 14  3  0
  1 15  4  0
  2  5  3  0
  2  9  3  0
  2 13  2  0
  2 15  4  0
  2 16  4  0
  2 18  3  0
  3  4  2  0
  3  8  2  0
  3 11  4  0
  4  5  3  0
  4  6  1  0
  4  7  2  0
  4  8  1  0
  4 11  2  0
  4 12  3  0
  4 13  2  0
  4 16  1  0
  5  6  1  0
  5  8  1  0
  5 11  1  0
  5 15  4  0
  5 17  3  0
  5 18  3  0
  6  8  2  0
  6 13  1  0
  6 16  4  0
  7  8  2  0
  7  9  4  0
  7 12  1  0
  7 13  1  0
  7 15  3  0
  7 18  2  0
  8 12  3  0
  9 10  3  0
  9 16  2  0
 10 12  4  0
 10 13  4  0
 10 14  3  0
 10 15  2  0
 10 16  2  0
 11 12  3  0
 11 13  2  0
 11 14  3  0
 11 16  1  0
 11 18  2  0
 12 14  2  0
 12 16  4  0
 12 17  4  0
 14 15  3  0
 15 16  3  0
 15 18  2  0
 16 17  2  0
 16 18  1  0
 17 18  3  0
M  END
$$$$

 Created by Python create_sdf_string function

 25  6  0  0  0  0  0  0  0  0999 V2000
   10.5620   -4.0987   17.0587 C   0  0  0  0  0  0  0  0  0  0  0  0
    7.2910   -7.6812   16.7600 C   0  0  0  0  0  0  0  0  0  0  0  0
   11.5537   -6.3298   18.9544 C   0  0  0  0  0  0  0  0  0  0  0  0
   10.3522   -6.0222   18.9734 C   0  0  0  0  0  0  0  0  0  0  0  0
    6.0536   -7.9685   16.0459 C   0  0  0  0  0  0  0  0  0  0  0  0
    8.7706   -6.5003   15.8606 C   0  0  0  0  0  0  0  0  0  0  0  0
    9.8140   -4.1806   16.8964 C   0  0  0  0  0  0  0  0  0  0  0  0
    8.1553   -8.9440   14.8942 O   0  0  0  0  0  0  0  0  0  0  0  0
    3.8798   -9.1066   16.8593 C   0  0  0  0  0  0  0  0  0  0  0  0
    8.6582   -6.1176   16.7289 C   0  0  0  0  0  0  0  0  0  0  0  0
    8.3485   -7.5690   15.2438 C   0  0  0  0  0  0  0  0  0  0  0  0
    3.1637   -9.1922   16.6366 C   0  0  0  0  0  0  0  0  0  0  0  0
    8.8914   -7.3877   18.1034 C   0  0  0  0  0  0  0  0  0  0  0  0
    7.8047   -8.1055   15.4903 C   0  0  0  0  0  0  0  0  0  0  0  0
    4.4928   -9.1030   17.7950 C   0  0  0  0  0  0  0  0  0  0  0  0
    6.2650   -6.7327   16.0662 C   0  0  0  0  0  0  0  0  0  0  0  0
    4.4687   -8.9993   17.4089 C   0  0  0  0  0  0  0  0  0  0  0  0
    9.7110   -5.0314   17.7805 C   0  0  0  0  0  0  0  0  0  0  0  0
    5.0255   -8.7593   16.0031 C   0  0  0  0  0  0  0  0  0  0  0  0
    7.0598   -7.7770   17.3563 C   0  0  0  0  0  0  0  0  0  0  0  0
   10.0678   -4.8366   17.3047 C   0  0  0  0  0  0  0  0  0  0  0  0
    2.7505   -9.5277   17.0528 C   0  0  0  0  0  0  0  0  0  0  0  0
   11.3091   -6.1168   19.3045 C   0  0  0  0  0  0  0  0  0  0  0  0
    9.5640   -6.8054   18.2256 C   0  0  0  0  0  0  0  0  0  0  0  0
    6.1477   -8.5325   18.6558 C   0  0  0  0  0  0  0  0  0  0  0  0
  3 23  1  0
  8 14  1  0
  9 22  4  0
 12 22  4  0
 13 24  1  0
 15 17  4  0
M  END
$$$$

 Created by Python create_sdf_string function

 25 40  0  0  0  0  0  0  0  0999 V2000
    6.2588   -9.1538   15.4973 F   0  0  0  0  0  0  0  0  0  0  0  0
   10.1807   -5.2752   17.3775 C   0  0  0  0  0  0  0  0  0  0  0  0
    6.8485   -8.6823   16.0741 O   0  0  0  0  0  0  0  0  0  0  0  0
    3.0831  -11.0153   17.5052 C   0  0  0  0  0  0  0  0  0  0  0  0
    7.5749   -6.2702   16.1975 P   0  0  0  0  0  0  0  0  0  0  0  0
    8.7258   -6.9892   16.5291 O   0  0  0  0  0  0  0  0  0  0  0  0
    7.9403   -7.2783   15.0614 C   0  0  0  0  0  0  0  0  0  0  0  0
    4.9010   -9.3641   16.7095 I   0  0  0  0  0  0  0  0  0  0  0  0
    9.1084   -5.3147   17.5268 Br  0  0  0  0  0  0  0  0  0  0  0  0
    5.3886  -11.7050   16.1359 C   0  0  0  0  0  0  0  0  0  0  0  0
    8.1044   -9.5118   18.5347 Cl  0  0  0  0  0  0  0  0  0  0  0  0
    8.7547   -4.6736   16.2826 C   0  0  0  0  0  0  0  0  0  0  0  0
    8.4275   -5.2608   16.9291 N   0  0  0  0  0  0  0  0  0  0  0  0
    6.1998   -8.8982   18.4517 S   0  0  0  0  0  0  0  0  0  0  0  0
   11.8886   -4.4559   16.6638 He  0  0  0  0  0  0  0  0  0  0  0  0
    6.1182   -8.5987   17.0749 He  0  0  0  0  0  0  0  0  0  0  0  0
   11.1781   -5.6629   18.2647 He  0  0  0  0  0  0  0  0  0  0  0  0
   10.6812   -6.4503   18.4127 He  0  0  0  0  0  0  0  0  0  0  0  0
    9.2419   -4.7151   16.9154 He  0  0  0  0  0  0  0  0  0  0  0  0
    7.2020   -5.1188   16.1349 He  0  0  0  0  0  0  0  0  0  0  0  0
    3.3781   -8.4789   16.9766 He  0  0  0  0  0  0  0  0  0  0  0  0
    5.1471   -8.6267   17.4974 He  0  0  0  0  0  0  0  0  0  0  0  0
    5.8619   -5.6114   16.0354 He  0  0  0  0  0  0  0  0  0  0  0  0
    3.0784   -9.7827   16.6370 He  0  0  0  0  0  0  0  0  0  0  0  0
   11.0923   -5.4702   17.0662 He  0  0  0  0  0  0  0  0  0  0  0  0
  1  2  3  0
  1  3  4  0
  1  5  1  0
  1 10  3  0
  1 13  3  0
  1 14  3  0
  2  4  4  0
  2  5  4  0
  2  6  3  0
  2  7  2  0
  2 14  1  0
  3  4  3  0
  3  5  3  0
  3  6  3  0
  3 12  2  0
  4  6  3  0
  4  7  3  0
  4  8  1  0
  4  9  3  0
  4 10  2  0
  4 13  3  0
  4 14  4  0
  5  6  4  0
  5  7  4  0
  5  9  4  0
  5 11  2  0
  5 13  2  0
  6  7  1  0
  6  8  2  0
  6 10  4  0
  6 11  4  0
  7  9  4  0
  7 11  2  0
  7 12  1  0
  7 14  1  0
  8 12  4  0
  8 13  3  0
  9 14  3  0
 10 13  3  0
 10 14  4  0
M  END
$$$$

 Created by Python create_sdf_string function

 25  2  0  0  0  0  0  0  0  0999 V2000
   11.5034   -3.8185   17.1074 C   0  0  0  0  0  0  0  0  0  0  0  0
    6.0480   -8.5257   17.1921 C   0  0  0  0  0  0  0  0  0  0  0  0
   10.8696   -5.3995   18.6061 C   0  0  0  0  0  0  0  0  0  0  0  0
   10.1816   -6.4598   18.7320 C   0  0  0  0  0  0  0  0  0  0  0  0
    6.3698   -9.1094   15.9707 C   0  0  0  0  0  0  0  0  0  0  0  0
   10.4026   -5.0241   17.7260 C   0  0  0  0  0  0  0  0  0  0  0  0
    9.6911   -4.5453   16.7046 C   0  0  0  0  0  0  0  0  0  0  0  0
    7.0608   -8.7967   15.9577 C   0  0  0  0  0  0  0  0  0  0  0  0
    3.5399  -10.2990   17.7901 C   0  0  0  0  0  0  0  0  0  0  0  0
    7.5220   -6.7667   16.2685 C   0  0  0  0  0  0  0  0  0  0  0  0
    7.6846   -5.8490   15.9660 C   0  0  0  0  0  0  0  0  0  0  0  0
    3.6061   -8.9541   16.8422 C   0  0  0  0  0  0  0  0  0  0  0  0
    8.5733   -7.4299   16.7557 C   0  0  0  0  0  0  0  0  0  0  0  0
    7.9369   -7.8146   15.6916 C   0  0  0  0  0  0  0  0  0  0  0  0
    4.9993   -8.8157   17.2167 C   0  0  0  0  0  0  0  0  0  0  0  0
    6.2912   -6.5188   15.7481 F   0  0  0  0  0  0  0  0  0  0  0  0
    4.6141   -9.2903   16.8702 C   0  0  0  0  0  0  0  0  0  0  0  0
    9.4430   -5.7384   17.6942 C   0  0  0  0  0  0  0  0  0  0  0  0
    5.3310  -10.5246   16.7922 C   0  0  0  0  0  0  0  0  0  0  0  0
    7.9682   -8.3490   18.0929 C   0  0  0  0  0  0  0  0  0  0  0  0
    9.1977   -4.5384   16.3114 C   0  0  0  0  0  0  0  0  0  0  0  0
    3.2008   -9.4200   16.9947 C   0  0  0  0  0  0  0  0  0  0  0  0
   10.9553   -4.6801   17.5535 C   0  0  0  0  0  0  0  0  0  0  0  0
    8.7123   -5.5902   16.8311 C   0  0  0  0  0  0  0  0  0  0  0  0
    6.1897   -8.6283   17.9225 C   0  0  0  0  0  0  0  0  0  0  0  0
  5  8  1  0
 12 22  4  0
M  END
$$$$

 Created by Python create_sdf_string function

 25 25  0  0  0  0  0  0  0  0999 V2000
   11.7891   -4.2765   18.4592 O   0  0  0  0  0  0  0  0  0  0  0  0
   10.5501   -5.5335   18.2360 C   0  0  0  0  0  0  0  0  0  0  0  0
    9.5505   -6.8429   18.4023 N   0  0  0  0  0  0  0  0  0  0  0  0
   11.7651   -5.0212   17.4598 Cl  0  0  0  0  0  0  0  0  0  0  0  0
    8.5873   -5.3573   16.8745 C   0  0  0  0  0  0  0  0  0  0  0  0
    6.5276   -7.3638   15.3951 S   0  0  0  0  0  0  0  0  0  0  0  0
    8.8071   -8.4341   16.8254 S   0  0  0  0  0  0  0  0  0  0  0  0
    7.7003   -5.5315   16.2822 O   0  0  0  0  0  0  0  0  0  0  0  0
    8.2509   -4.8805   17.8943 N   0  0  0  0  0  0  0  0  0  0  0  0
    6.0724   -8.9304   15.4286 C   0  0  0  0  0  0  0  0  0  0  0  0
    9.5025   -6.4486   15.1934 O   0  0  0  0  0  0  0  0  0  0  0  0
    5.3205   -7.9547   16.8342 He  0  0  0  0  0  0  0  0  0  0  0  0
    5.7677  -10.0716   15.4649 He  0  0  0  0  0  0  0  0  0  0  0  0
    7.6087   -8.2576   15.8596 He  0  0  0  0  0  0  0  0  0  0  0  0
    3.4307   -9.5854   17.5162 He  0  0  0  0  0  0  0  0  0  0  0  0
    7.2187   -4.3613   17.3766 He  0  0  0  0  0  0  0  0  0  0  0  0
    3.1223   -9.5905   17.4374 He  0  0  0  0  0  0  0  0  0  0  0  0
    9.4075   -7.4110   14.4583 He  0  0  0  0  0  0  0  0  0  0  0  0
    4.7536   -9.7619   17.8486 He  0  0  0  0  0  0  0  0  0  0  0  0
    4.5873   -8.4182   16.2097 He  0  0  0  0  0  0  0  0  0  0  0  0
    8.3047   -9.3260   17.1033 He  0  0  0  0  0  0  0  0  0  0  0  0
    3.4652  -10.2858   17.3226 He  0  0  0  0  0  0  0  0  0  0  0  0
   11.4185   -6.0127   17.3360 He  0  0  0  0  0  0  0  0  0  0  0  0
    7.9491   -4.2356   17.0920 He  0  0  0  0  0  0  0  0  0  0  0  0
    6.3450   -8.0293   18.1733 He  0  0  0  0  0  0  0  0  0  0  0  0
  1  2  3  0
  1  8  3  0
  1  9  3  0
  1 10  1  0
  2  4  1  0
  2  5  3  0
  2  6  4  0
  2 10  1  0
  3  6  2  0
  3  7  1  0
  3 10  2  0
  4  5  4  0
  4  6  3  0
  4  7  2  0
  4  8  2  0
  4  9  2  0
  4 10  4  0
  4 11  1  0
  5  8  2  0
  5  9  1  0
  5 10  3  0
  6  8  2  0
  6 10  4  0
  6 11  2  0
  7 10  4  0
M  END
$$$$

 Created by Python create_sdf_string function

 25  1  0  0  0  0  0  0  0  0999 V2000
   11.1434   -4.1024   18.4322 C   0  0  0  0  0  0  0  0  0  0  0  0
    5.3086   -8.2212   16.8586 C   0  0  0  0  0  0  0  0  0  0  0  0
   10.4296   -5.3186   18.4647 C   0  0  0  0  0  0  0  0  0  0  0  0
    9.5835   -6.7813   18.2746 F   0  0  0  0  0  0  0  0  0  0  0  0
    5.7639   -9.4516   15.8806 C   0  0  0  0  0  0  0  0  0  0  0  0
   11.0644   -4.5530   17.6571 C   0  0  0  0  0  0  0  0  0  0  0  0
    8.9017   -5.4849   16.9493 C   0  0  0  0  0  0  0  0  0  0  0  0
    7.6244   -8.2255   16.0630 C   0  0  0  0  0  0  0  0  0  0  0  0
    3.4615   -9.3844   17.1885 C   0  0  0  0  0  0  0  0  0  0  0  0
    6.5917   -7.4204   15.6546 C   0  0  0  0  0  0  0  0  0  0  0  0
    8.1330   -5.2149   16.8795 F   0  0  0  0  0  0  0  0  0  0  0  0
    3.2672   -9.5161   17.2125 C   0  0  0  0  0  0  0  0  0  0  0  0
    8.6708   -8.1405   17.2088 F   0  0  0  0  0  0  0  0  0  0  0  0
    8.7127   -7.8014   15.3306 F   0  0  0  0  0  0  0  0  0  0  0  0
    4.7681   -9.3281   17.6651 C   0  0  0  0  0  0  0  0  0  0  0  0
    7.8243   -5.8236   16.1427 C   0  0  0  0  0  0  0  0  0  0  0  0
    4.5673   -8.6612   16.4689 C   0  0  0  0  0  0  0  0  0  0  0  0
    8.9326   -5.1910   17.8825 C   0  0  0  0  0  0  0  0  0  0  0  0
    6.1711   -8.8302   15.8598 C   0  0  0  0  0  0  0  0  0  0  0  0
    8.1033   -8.5120   17.2401 F   0  0  0  0  0  0  0  0  0  0  0  0
    9.0727   -6.6054   15.8040 F   0  0  0  0  0  0  0  0  0  0  0  0
    3.4384   -9.6724   17.3587 C   0  0  0  0  0  0  0  0  0  0  0  0
   10.7758   -5.5602   17.8517 C   0  0  0  0  0  0  0  0  0  0  0  0
    9.0560   -4.5625   16.6190 F   0  0  0  0  0  0  0  0  0  0  0  0
    6.5800   -7.9271   17.8198 F   0  0  0  0  0  0  0  0  0  0  0  0
 13 20  1  0
M  END
$$$$

 Created by Python create_sdf_string function

 25 24  0  0  0  0  0  0  0  0999 V2000
   11.9714   -2.4961   17.4949 S   0  0  0  0  0  0  0  0  0  0  0  0
    6.3766   -8.1646   17.1932 C   0  0  0  0  0  0  0  0  0  0  0  0
   10.7883   -5.7718   19.0823 F   0  0  0  0  0  0  0  0  0  0  0  0
   12.5599   -4.1609   16.8611 F   0  0  0  0  0  0  0  0  0  0  0  0
    7.6928   -8.3589   17.3987 N   0  0  0  0  0  0  0  0  0  0  0  0
    9.7952   -9.6366   14.7972 O   0  0  0  0  0  0  0  0  0  0  0  0
    4.8359   -8.7097   17.8255 N   0  0  0  0  0  0  0  0  0  0  0  0
    9.9748   -5.0182   19.1234 I   0  0  0  0  0  0  0  0  0  0  0  0
    8.8754   -8.9749   15.9286 F   0  0  0  0  0  0  0  0  0  0  0  0
    8.1721   -5.3760   14.9089 F   0  0  0  0  0  0  0  0  0  0  0  0
    4.5755  -10.6404   16.4438 C   0  0  0  0  0  0  0  0  0  0  0  0
    5.3812   -8.5013   17.9848 F   0  0  0  0  0  0  0  0  0  0  0  0
    8.5589   -5.3398   18.3872 He  0  0  0  0  0  0  0  0  0  0  0  0
    3.9328   -9.5467   14.4918 He  0  0  0  0  0  0  0  0  0  0  0  0
    7.7182   -5.1830   15.9142 He  0  0  0  0  0  0  0  0  0  0  0  0
    9.3447   -9.5907   15.9636 He  0  0  0  0  0  0  0  0  0  0  0  0
    2.2902   -9.1240   17.0821 He  0  0  0  0  0  0  0  0  0  0  0  0
    4.8351   -9.7335   16.9946 He  0  0  0  0  0  0  0  0  0  0  0  0
    7.7677   -5.3323   17.6666 He  0  0  0  0  0  0  0  0  0  0  0  0
    4.1546   -9.7117   18.2804 He  0  0  0  0  0  0  0  0  0  0  0  0
    6.3910   -5.3241   17.0103 He  0  0  0  0  0  0  0  0  0  0  0  0
    3.9922   -8.0055   16.8153 He  0  0  0  0  0  0  0  0  0  0  0  0
    8.0941   -8.2115   15.2315 He  0  0  0  0  0  0  0  0  0  0  0  0
    9.8476   -5.6672   17.3199 He  0  0  0  0  0  0  0  0  0  0  0  0
    9.4981   -6.0989   16.6586 He  0  0  0  0  0  0  0  0  0  0  0  0
  1  4  4  0
  1  5  1  0
  1  6  3  0
  1 10  2  0
  1 11  3  0
  1 12  3  0
  2  3  1  0
  2 10  4  0
  2 11  4  0
  2 12  3  0
  3  4  2  0
  3  5  2  0
  4  5  3  0
  4  9  3  0
  5  8  2  0
  5 10  3  0
  6 10  2  0
  7  9  3  0
  7 10  4  0
  7 12  2  0
  9 10  1  0
 10 11  1  0
 10 12  4  0
 11 12  2  0
M  END
$$$$

 Created by Python create_sdf_string function

 25  3  0  0  0  0  0  0  0  0999 V2000
   11.3288   -3.4373   17.4740 C   0  0  0  0  0  0  0  0  0  0  0  0
    6.6218   -8.0765   17.1551 C   0  0  0  0  0  0  0  0  0  0  0  0
   10.4366   -5.0604   18.8139 C   0  0  0  0  0  0  0  0  0  0  0  0
    9.0243   -5.7273   18.1880 C   0  0  0  0  0  0  0  0  0  0  0  0
    3.8339   -9.1391   15.5300 C   0  0  0  0  0  0  0  0  0  0  0  0
   11.3777   -3.8827   17.1717 C   0  0  0  0  0  0  0  0  0  0  0  0
    7.9252   -5.7439   16.0763 C   0  0  0  0  0  0  0  0  0  0  0  0
    8.6695   -8.6177   16.2071 F   0  0  0  0  0  0  0  0  0  0  0  0
    2.7149   -9.4165   16.7900 C   0  0  0  0  0  0  0  0  0  0  0  0
    4.7228   -9.3654   16.7951 C   0  0  0  0  0  0  0  0  0  0  0  0
    8.4339   -6.0764   17.7645 C   0  0  0  0  0  0  0  0  0  0  0  0
    4.0863   -9.6470   17.7433 C   0  0  0  0  0  0  0  0  0  0  0  0
    7.6563   -8.0040   17.4373 F   0  0  0  0  0  0  0  0  0  0  0  0
    8.7189   -8.6228   15.1983 F   0  0  0  0  0  0  0  0  0  0  0  0
    5.1094   -8.6113   17.7122 C   0  0  0  0  0  0  0  0  0  0  0  0
    6.9365   -6.2302   16.7520 F   0  0  0  0  0  0  0  0  0  0  0  0
    4.0260   -8.5604   16.6671 C   0  0  0  0  0  0  0  0  0  0  0  0
   10.3264   -4.8166   18.9630 C   0  0  0  0  0  0  0  0  0  0  0  0
    7.8925   -8.2987   15.6871 C   0  0  0  0  0  0  0  0  0  0  0  0
    8.3209   -8.4396   16.0225 F   0  0  0  0  0  0  0  0  0  0  0  0
    8.1447   -5.8471   15.7657 F   0  0  0  0  0  0  0  0  0  0  0  0
    4.5335   -9.7244   16.8390 C   0  0  0  0  0  0  0  0  0  0  0  0
   10.0117   -5.0760   17.4691 C   0  0  0  0  0  0  0  0  0  0  0  0
    9.4453   -5.7168   17.1008 C   0  0  0  0  0  0  0  0  0  0  0  0
    5.5962   -8.4402   17.7460 C   0  0  0  0  0  0  0  0  0  0  0  0
  1  6  4  0
  3 18  4  0
  8 20  1  0
M  END
$$$$

 Created by Python create_sdf_string function

 25 43  0  0  0  0  0  0  0  0999 V2000
   12.0836   -3.9819   16.9184 C   0  0  0  0  0  0  0  0  0  0  0  0
    5.8636   -6.2891   16.7490 C   0  0  0  0  0  0  0  0  0  0  0  0
    2.9328   -7.8557   16.4393 S   0  0  0  0  0  0  0  0  0  0  0  0
    3.0348   -9.8410   18.8484 C   0  0  0  0  0  0  0  0  0  0  0  0
    6.3755   -9.6894   18.0616 O   0  0  0  0  0  0  0  0  0  0  0  0
    8.0816   -6.8560   17.1529 F   0  0  0  0  0  0  0  0  0  0  0  0
    3.5692   -9.3943   17.5188 C   0  0  0  0  0  0  0  0  0  0  0  0
    7.8479   -6.8289   17.7986 F   0  0  0  0  0  0  0  0  0  0  0  0
    4.3039   -9.1181   19.0605 Br  0  0  0  0  0  0  0  0  0  0  0  0
    3.1443   -9.3314   16.0725 O   0  0  0  0  0  0  0  0  0  0  0  0
    7.5621   -6.3559   16.4900 C   0  0  0  0  0  0  0  0  0  0  0  0
    8.8766   -5.5377   15.6344 C   0  0  0  0  0  0  0  0  0  0  0  0
    9.9370   -4.4211   17.4743 P   0  0  0  0  0  0  0  0  0  0  0  0
   10.6876   -6.3192   16.4649 C   0  0  0  0  0  0  0  0  0  0  0  0
   11.4198   -5.8383   18.1819 He  0  0  0  0  0  0  0  0  0  0  0  0
   10.3424   -4.7768   18.0646 He  0  0  0  0  0  0  0  0  0  0  0  0
   12.2098   -3.4282   17.3952 He  0  0  0  0  0  0  0  0  0  0  0  0
    7.8151   -5.7767   16.1941 He  0  0  0  0  0  0  0  0  0  0  0  0
   10.4422   -8.7287   14.9595 He  0  0  0  0  0  0  0  0  0  0  0  0
    7.1642   -8.0651   15.8373 He  0  0  0  0  0  0  0  0  0  0  0  0
    7.3188   -7.8078   17.8804 He  0  0  0  0  0  0  0  0  0  0  0  0
    9.6156   -5.2184   18.9188 He  0  0  0  0  0  0  0  0  0  0  0  0
    8.2275   -9.4278   15.7428 He  0  0  0  0  0  0  0  0  0  0  0  0
    5.0293   -9.5882   16.2311 He  0  0  0  0  0  0  0  0  0  0  0  0
    5.7642   -8.6824   17.0894 He  0  0  0  0  0  0  0  0  0  0  0  0
  1  2  4  0
  1  7  3  0
  1  8  3  0
  1  9  1  0
  1 14  3  0
  2  4  3  0
  2  5  4  0
  2  6  4  0
  2  7  1  0
  2  9  2  0
  2 10  1  0
  2 12  1  0
  2 13  4  0
  3  8  4  0
  3 10  3  0
  3 11  4  0
  3 13  3  0
  4 11  2  0
  4 12  3  0
  5  6  4  0
  5  7  1  0
  5 11  1  0
  5 12  3  0
  5 14  4  0
  6  7  4  0
  6  9  3  0
  6 10  4  0
  6 11  1  0
  6 13  3  0
  7  8  3  0
  7  9  3  0
  7 10  3  0
  8 11  2  0
  8 12  2  0
  8 13  2  0
  9 10  1  0
  9 13  2  0
 10 13  4  0
 10 14  2  0
 11 12  4  0
 11 13  4  0
 12 14  3  0
 13 14  1  0
M  END
$$$$

 Created by Python create_sdf_string function

 25  6  0  0  0  0  0  0  0  0999 V2000
   11.4571   -3.7614   16.8824 C   0  0  0  0  0  0  0  0  0  0  0  0
    6.2237   -6.9980   16.4404 C   0  0  0  0  0  0  0  0  0  0  0  0
   10.8383   -5.2911   18.3477 C   0  0  0  0  0  0  0  0  0  0  0  0
   10.3935   -4.7293   18.0767 C   0  0  0  0  0  0  0  0  0  0  0  0
    3.4771   -8.5638   16.4114 C   0  0  0  0  0  0  0  0  0  0  0  0
   11.5731   -3.2945   17.1320 O   0  0  0  0  0  0  0  0  0  0  0  0
    8.1079   -5.6538   16.1937 F   0  0  0  0  0  0  0  0  0  0  0  0
    8.9079   -8.4888   15.5714 F   0  0  0  0  0  0  0  0  0  0  0  0
    3.3571  -10.0108   17.9823 C   0  0  0  0  0  0  0  0  0  0  0  0
    6.3799   -8.8714   17.5946 C   0  0  0  0  0  0  0  0  0  0  0  0
    8.1768   -6.8176   17.0270 C   0  0  0  0  0  0  0  0  0  0  0  0
    3.7040   -9.4497   17.3256 C   0  0  0  0  0  0  0  0  0  0  0  0
    8.2353   -6.8232   17.7433 F   0  0  0  0  0  0  0  0  0  0  0  0
    7.2681   -8.2835   15.8539 C   0  0  0  0  0  0  0  0  0  0  0  0
    4.6578   -9.6675   18.1834 C   0  0  0  0  0  0  0  0  0  0  0  0
    7.3172   -7.8318   17.6334 F   0  0  0  0  0  0  0  0  0  0  0  0
    3.0852   -8.9691   16.3900 C   0  0  0  0  0  0  0  0  0  0  0  0
    9.8066   -5.4548   18.7954 C   0  0  0  0  0  0  0  0  0  0  0  0
    7.8403   -6.5434   16.5672 C   0  0  0  0  0  0  0  0  0  0  0  0
    7.7939   -8.7038   15.4398 F   0  0  0  0  0  0  0  0  0  0  0  0
    8.9134   -5.3488   16.3153 C   0  0  0  0  0  0  0  0  0  0  0  0
    5.1315   -8.9451   16.3898 C   0  0  0  0  0  0  0  0  0  0  0  0
   10.2295   -4.3930   17.3465 C   0  0  0  0  0  0  0  0  0  0  0  0
    9.9419   -5.6200   16.9936 C   0  0  0  0  0  0  0  0  0  0  0  0
    5.5725   -8.6507   16.7471 C   0  0  0  0  0  0  0  0  0  0  0  0
  5 17  4  0
  9 12  4  0
  9 15  4  0
 11 19  1  0
 14 20  1  0
 22 25  4  0
M  END
$$$$

 Created by Python create_sdf_string function

 25 44  0  0  0  0  0  0  0  0999 V2000
   12.1441   -3.7418   15.6442 N   0  0  0  0  0  0  0  0  0  0  0  0
    5.8875   -6.9946   17.7334 Cl  0  0  0  0  0  0  0  0  0  0  0  0
    9.9221   -3.3759   18.4283 C   0  0  0  0  0  0  0  0  0  0  0  0
    4.8826   -8.7455   17.6214 F   0  0  0  0  0  0  0  0  0  0  0  0
   11.4076   -4.0211   16.1606 N   0  0  0  0  0  0  0  0  0  0  0  0
   11.0250   -6.1409   16.3458 S   0  0  0  0  0  0  0  0  0  0  0  0
   10.8143   -8.8510   16.3091 S   0  0  0  0  0  0  0  0  0  0  0  0
    7.1583   -5.8291   16.7491 O   0  0  0  0  0  0  0  0  0  0  0  0
    9.1033   -7.6309   18.7546 F   0  0  0  0  0  0  0  0  0  0  0  0
    7.6809   -8.7992   18.3855 C   0  0  0  0  0  0  0  0  0  0  0  0
    3.6279   -7.1828   14.6199 C   0  0  0  0  0  0  0  0  0  0  0  0
    6.5457   -6.4757   16.8902 O   0  0  0  0  0  0  0  0  0  0  0  0
    9.1454   -5.7745   13.5306 S   0  0  0  0  0  0  0  0  0  0  0  0
    4.4481   -9.2816   15.7460 S   0  0  0  0  0  0  0  0  0  0  0  0
    9.6040   -5.5194   17.5370 F   0  0  0  0  0  0  0  0  0  0  0  0
    6.9804   -8.9271   17.0731 F   0  0  0  0  0  0  0  0  0  0  0  0
   10.3375   -5.8710   19.2385 He  0  0  0  0  0  0  0  0  0  0  0  0
    3.0333   -9.6448   17.1868 He  0  0  0  0  0  0  0  0  0  0  0  0
    6.0080   -8.8882   18.6510 He  0  0  0  0  0  0  0  0  0  0  0  0
    3.4985   -8.7002   16.0919 He  0  0  0  0  0  0  0  0  0  0  0  0
    6.2367   -7.7588   17.7583 He  0  0  0  0  0  0  0  0  0  0  0  0
    4.8112   -8.9887   18.7808 He  0  0  0  0  0  0  0  0  0  0  0  0
    9.7968   -5.0527   19.4668 He  0  0  0  0  0  0  0  0  0  0  0  0
    6.4541   -6.5151   18.2628 He  0  0  0  0  0  0  0  0  0  0  0  0
   10.3877   -4.3620   17.2949 He  0  0  0  0  0  0  0  0  0  0  0  0
  1  5  1  0
  1  7  1  0
  1 10  2  0
  1 12  2  0
  1 13  4  0
  1 16  4  0
  2  8  2  0
  2  9  3  0
  2 12  2  0
  3 10  1  0
  3 11  3  0
  4  5  2  0
  4  6  2  0
  4  7  3  0
  4  8  2  0
  4 10  4  0
  4 11  1  0
  4 14  3  0
  4 15  2  0
  4 16  2  0
  5  6  1  0
  5  7  2  0
  5 10  2  0
  5 11  3  0
  6  9  1  0
  6 16  2  0
  7 11  1  0
  7 13  4  0
  7 14  2  0
  8  9  4  0
  8 14  1  0
  8 15  3  0
  9 10  4  0
  9 13  4  0
  9 16  3  0
 10 13  4  0
 11 13  2  0
 11 15  1  0
 11 16  1  0
 12 13  2  0
 12 16  1  0
 13 15  2  0
 13 16  1  0
 14 15  4  0
M  END
$$$$

 Created by Python create_sdf_string function

 25  1  0  0  0  0  0  0  0  0999 V2000
   11.3759   -3.5852   15.9345 C   0  0  0  0  0  0  0  0  0  0  0  0
    6.0770   -7.4046   17.2841 C   0  0  0  0  0  0  0  0  0  0  0  0
   10.0062   -5.6634   18.8917 C   0  0  0  0  0  0  0  0  0  0  0  0
   10.5838   -3.9740   18.2072 C   0  0  0  0  0  0  0  0  0  0  0  0
    4.7786   -8.7513   17.2761 C   0  0  0  0  0  0  0  0  0  0  0  0
   11.0382   -3.8287   16.2960 C   0  0  0  0  0  0  0  0  0  0  0  0
    9.9905   -5.2894   16.6767 C   0  0  0  0  0  0  0  0  0  0  0  0
    9.2611   -8.2561   16.8309 F   0  0  0  0  0  0  0  0  0  0  0  0
    3.2238   -9.2340   16.9294 C   0  0  0  0  0  0  0  0  0  0  0  0
    6.0997   -8.6611   18.2213 F   0  0  0  0  0  0  0  0  0  0  0  0
    7.6607   -6.2261   16.3526 C   0  0  0  0  0  0  0  0  0  0  0  0
    3.5979   -8.6344   16.2118 C   0  0  0  0  0  0  0  0  0  0  0  0
    9.0761   -7.3696   18.2161 F   0  0  0  0  0  0  0  0  0  0  0  0
    6.4276   -7.9024   17.3915 C   0  0  0  0  0  0  0  0  0  0  0  0
    4.9483   -9.1528   17.9172 C   0  0  0  0  0  0  0  0  0  0  0  0
    7.9686   -8.1920   17.8249 C   0  0  0  0  0  0  0  0  0  0  0  0
    3.9946   -7.7768   15.6955 C   0  0  0  0  0  0  0  0  0  0  0  0
   10.0144   -5.1959   19.0153 C   0  0  0  0  0  0  0  0  0  0  0  0
    7.0493   -6.9269   17.8881 F   0  0  0  0  0  0  0  0  0  0  0  0
    6.9725   -6.7943   16.4316 C   0  0  0  0  0  0  0  0  0  0  0  0
    8.8513   -5.9344   15.3843 F   0  0  0  0  0  0  0  0  0  0  0  0
    4.4206   -8.6931   16.1873 C   0  0  0  0  0  0  0  0  0  0  0  0
    9.6807   -5.4476   17.4230 C   0  0  0  0  0  0  0  0  0  0  0  0
   10.4876   -4.2094   17.3067 C   0  0  0  0  0  0  0  0  0  0  0  0
    7.2159   -8.4990   16.7836 F   0  0  0  0  0  0  0  0  0  0  0  0
  1  6  1  0
M  END
$$$$

 Created by Python create_sdf_string function

 25 42  0  0  0  0  0  0  0  0999 V2000
    5.4090   -7.3628   17.2004 S   0  0  0  0  0  0  0  0  0  0  0  0
    9.5903   -5.0717   18.3819 B   0  0  0  0  0  0  0  0  0  0  0  0
   10.8854   -4.4606   17.5404 C   0  0  0  0  0  0  0  0  0  0  0  0
   10.1607   -2.5916   14.3081 P   0  0  0  0  0  0  0  0  0  0  0  0
    2.9451  -10.8853   17.3773 C   0  0  0  0  0  0  0  0  0  0  0  0
    7.5883   -9.1656   20.0816 O   0  0  0  0  0  0  0  0  0  0  0  0
    4.5981   -6.3995   19.0917 Se  0  0  0  0  0  0  0  0  0  0  0  0
    8.8113   -6.2876   18.5590 F   0  0  0  0  0  0  0  0  0  0  0  0
    7.4985   -8.6111   17.9003 P   0  0  0  0  0  0  0  0  0  0  0  0
    5.2749   -9.8931   16.7446 C   0  0  0  0  0  0  0  0  0  0  0  0
    9.1183   -7.7560   18.0440 I   0  0  0  0  0  0  0  0  0  0  0  0
    4.2926   -9.5870   15.3535 S   0  0  0  0  0  0  0  0  0  0  0  0
   10.6836   -4.5352   19.1594 S   0  0  0  0  0  0  0  0  0  0  0  0
    6.8813   -6.7911   17.4253 C   0  0  0  0  0  0  0  0  0  0  0  0
    8.7633   -7.1467   14.7136 S   0  0  0  0  0  0  0  0  0  0  0  0
   10.0677   -5.2516   16.2010 F   0  0  0  0  0  0  0  0  0  0  0  0
    5.1753   -9.5918   16.8840 O   0  0  0  0  0  0  0  0  0  0  0  0
   11.3387   -2.6467   17.1729 He  0  0  0  0  0  0  0  0  0  0  0  0
    5.3662   -8.8858   18.9142 He  0  0  0  0  0  0  0  0  0  0  0  0
   10.2137   -5.3112   16.9973 He  0  0  0  0  0  0  0  0  0  0  0  0
   10.6553   -8.9653   16.6205 He  0  0  0  0  0  0  0  0  0  0  0  0
    7.1932   -5.1180   16.7877 He  0  0  0  0  0  0  0  0  0  0  0  0
    9.3657   -6.5440   16.4434 He  0  0  0  0  0  0  0  0  0  0  0  0
    5.3379   -9.7672   15.7577 He  0  0  0  0  0  0  0  0  0  0  0  0
    9.5384   -4.4521   17.2808 He  0  0  0  0  0  0  0  0  0  0  0  0
  1  3  3  0
  1  7  3  0
  1  9  1  0
  2  4  2  0
  2  5  4  0
  3  6  1  0
  3  9  3  0
  3 13  1  0
  3 14  4  0
  4  9  2  0
  4 12  1  0
  5 10  2  0
  5 11  3  0
  5 13  1  0
  5 17  1  0
  6  8  2  0
  6  9  2  0
  6 14  3  0
  6 15  4  0
  6 17  3  0
  7  9  1  0
  7 10  3  0
  7 15  3  0
  7 16  2  0
  8 10  3  0
  8 11  2  0
  8 14  3  0
  8 15  4  0
  9 10  4  0
  9 12  4  0
  9 15  4  0
  9 17  1  0
 10 11  3  0
 10 16  3  0
 11 16  2  0
 12 13  4  0
 12 14  1  0
 12 15  2  0
 13 14  4  0
 14 16  1  0
 14 17  3  0
 15 16  1  0
M  END
$$$$

 Created by Python create_sdf_string function

 25  1  0  0  0  0  0  0  0  0999 V2000
   11.2481   -3.1981   17.2296 C   0  0  0  0  0  0  0  0  0  0  0  0
    5.8739   -7.7390   17.2411 C   0  0  0  0  0  0  0  0  0  0  0  0
    9.7382   -5.3061   18.4534 C   0  0  0  0  0  0  0  0  0  0  0  0
   10.7825   -4.1184   17.7782 C   0  0  0  0  0  0  0  0  0  0  0  0
    5.4583   -8.7109   18.0414 C   0  0  0  0  0  0  0  0  0  0  0  0
   10.4091   -3.6503   15.4862 F   0  0  0  0  0  0  0  0  0  0  0  0
   10.1694   -4.9912   17.3046 C   0  0  0  0  0  0  0  0  0  0  0  0
    9.3160   -8.3517   16.9236 F   0  0  0  0  0  0  0  0  0  0  0  0
    3.5038   -9.9031   17.3869 C   0  0  0  0  0  0  0  0  0  0  0  0
    7.5422   -8.3308   18.8215 F   0  0  0  0  0  0  0  0  0  0  0  0
    7.6805   -5.8710   16.2273 F   0  0  0  0  0  0  0  0  0  0  0  0
    5.6280   -7.3051   18.3712 F   0  0  0  0  0  0  0  0  0  0  0  0
    9.0306   -6.4585   18.1744 F   0  0  0  0  0  0  0  0  0  0  0  0
    7.4503   -8.2955   17.3836 C   0  0  0  0  0  0  0  0  0  0  0  0
    5.1286   -9.5378   16.7637 C   0  0  0  0  0  0  0  0  0  0  0  0
    8.9370   -7.6263   17.8687 C   0  0  0  0  0  0  0  0  0  0  0  0
    4.1848   -9.4093   15.9171 C   0  0  0  0  0  0  0  0  0  0  0  0
   10.6325   -4.3824   19.0857 C   0  0  0  0  0  0  0  0  0  0  0  0
    7.1795   -7.1032   17.2039 C   0  0  0  0  0  0  0  0  0  0  0  0
    8.4566   -7.4584   15.4514 F   0  0  0  0  0  0  0  0  0  0  0  0
    9.0354   -6.3826   16.5763 C   0  0  0  0  0  0  0  0  0  0  0  0
    5.1831   -9.3219   15.9580 C   0  0  0  0  0  0  0  0  0  0  0  0
    9.8946   -4.4951   17.0828 C   0  0  0  0  0  0  0  0  0  0  0  0
    9.7277   -4.9374   16.3203 C   0  0  0  0  0  0  0  0  0  0  0  0
    5.0261   -9.2782   17.1166 C   0  0  0  0  0  0  0  0  0  0  0  0
 17 22  4  0
M  END
$$$$

 Created by Python create_sdf_string function

 25 53  0  0  0  0  0  0  0  0999 V2000
   10.3262   -3.0325   18.0911 C   0  0  0  0  0  0  0  0  0  0  0  0
    7.6739   -6.2337   15.4386 C   0  0  0  0  0  0  0  0  0  0  0  0
   10.1120   -5.0082   18.5813 N   0  0  0  0  0  0  0  0  0  0  0  0
    5.5098   -8.2977   17.9927 O   0  0  0  0  0  0  0  0  0  0  0  0
   11.2572   -3.8477   14.8572 N   0  0  0  0  0  0  0  0  0  0  0  0
   11.3210   -8.0484   16.2830 C   0  0  0  0  0  0  0  0  0  0  0  0
    3.2219  -11.4898   17.2371 Cl  0  0  0  0  0  0  0  0  0  0  0  0
    7.3006   -8.0461   20.0170 P   0  0  0  0  0  0  0  0  0  0  0  0
    6.0076   -7.2704   18.1385 P   0  0  0  0  0  0  0  0  0  0  0  0
    8.5989   -6.6296   18.4408 C   0  0  0  0  0  0  0  0  0  0  0  0
    7.4067   -8.5060   18.4806 Cl  0  0  0  0  0  0  0  0  0  0  0  0
    5.1376   -9.6222   17.1827 C   0  0  0  0  0  0  0  0  0  0  0  0
   10.1933   -5.5431   20.4902 F   0  0  0  0  0  0  0  0  0  0  0  0
    6.8394   -6.7734   17.8351 P   0  0  0  0  0  0  0  0  0  0  0  0
    8.0213   -7.1786   14.7368 C   0  0  0  0  0  0  0  0  0  0  0  0
    8.8731   -6.3648   15.8960 N   0  0  0  0  0  0  0  0  0  0  0  0
    4.6058   -9.7333   16.7509 C   0  0  0  0  0  0  0  0  0  0  0  0
    9.9436   -4.3100   16.3992 N   0  0  0  0  0  0  0  0  0  0  0  0
   10.7468   -4.2118   17.1163 He  0  0  0  0  0  0  0  0  0  0  0  0
    9.2410   -5.2001   17.2766 He  0  0  0  0  0  0  0  0  0  0  0  0
    8.0785   -6.7592   17.2506 He  0  0  0  0  0  0  0  0  0  0  0  0
    9.8523   -6.9811   18.8874 He  0  0  0  0  0  0  0  0  0  0  0  0
    4.3618   -8.2067   15.3790 He  0  0  0  0  0  0  0  0  0  0  0  0
    8.8988   -5.0225   17.3780 He  0  0  0  0  0  0  0  0  0  0  0  0
    5.6153   -8.1234   15.5016 He  0  0  0  0  0  0  0  0  0  0  0  0
  1 14  1  0
  1 16  2  0
  1 17  3  0
  2  9  1  0
  2 10  3  0
  2 16  3  0
  3  5  1  0
  3  6  2  0
  3 10  2  0
  3 11  2  0
  3 13  3  0
  3 14  2  0
  3 16  3  0
  3 18  2  0
  4  6  1  0
  4  8  2  0
  4  9  3  0
  4 10  4  0
  5  6  2  0
  5 10  1  0
  5 12  3  0
  5 15  4  0
  6 10  2  0
  6 12  2  0
  6 13  4  0
  6 14  2  0
  7 11  4  0
  7 14  2  0
  7 15  2  0
  8 10  2  0
  8 13  2  0
  8 14  1  0
  8 16  4  0
  9 10  4  0
  9 12  3  0
  9 16  4  0
  9 17  4  0
  9 18  3  0
 10 11  3  0
 10 13  2  0
 10 14  3  0
 10 16  3  0
 10 17  3  0
 10 18  1  0
 11 16  2  0
 11 18  4  0
 12 13  4  0
 12 14  4  0
 12 16  1  0
 12 18  4  0
 13 14  2  0
 13 18  1  0
 16 17  4  0
M  END
$$$$

 Created by Python create_sdf_string function

 25  6  0  0  0  0  0  0  0  0999 V2000
   10.8016   -3.4990   18.0196 C   0  0  0  0  0  0  0  0  0  0  0  0
    7.6357   -6.5707   15.5765 C   0  0  0  0  0  0  0  0  0  0  0  0
   10.1813   -5.2660   18.8198 C   0  0  0  0  0  0  0  0  0  0  0  0
   10.6853   -3.8154   17.3069 C   0  0  0  0  0  0  0  0  0  0  0  0
    5.5244   -8.7032   17.6954 C   0  0  0  0  0  0  0  0  0  0  0  0
   10.7979   -3.7980   15.6146 C   0  0  0  0  0  0  0  0  0  0  0  0
    9.4234   -5.4061   17.1873 C   0  0  0  0  0  0  0  0  0  0  0  0
    9.5921   -7.9160   17.3624 C   0  0  0  0  0  0  0  0  0  0  0  0
    3.5640  -10.1818   17.8206 C   0  0  0  0  0  0  0  0  0  0  0  0
    7.4372   -7.8943   18.8668 C   0  0  0  0  0  0  0  0  0  0  0  0
    8.0293   -6.7743   16.9223 C   0  0  0  0  0  0  0  0  0  0  0  0
    6.0245   -8.0523   17.5694 C   0  0  0  0  0  0  0  0  0  0  0  0
    8.9758   -6.6807   18.3445 C   0  0  0  0  0  0  0  0  0  0  0  0
    7.3285   -8.2636   18.1949 C   0  0  0  0  0  0  0  0  0  0  0  0
    4.7097   -9.4687   17.5008 C   0  0  0  0  0  0  0  0  0  0  0  0
    9.7994   -6.7054   18.8675 C   0  0  0  0  0  0  0  0  0  0  0  0
    4.5965   -8.7151   15.9803 C   0  0  0  0  0  0  0  0  0  0  0  0
   10.3069   -5.4700   19.9166 C   0  0  0  0  0  0  0  0  0  0  0  0
    7.1457   -7.1526   17.8488 C   0  0  0  0  0  0  0  0  0  0  0  0
    8.0225   -7.4887   15.2734 C   0  0  0  0  0  0  0  0  0  0  0  0
    8.4800   -6.5991   15.8996 C   0  0  0  0  0  0  0  0  0  0  0  0
    4.2098   -9.2777   16.8645 C   0  0  0  0  0  0  0  0  0  0  0  0
   10.1075   -4.2465   16.3857 C   0  0  0  0  0  0  0  0  0  0  0  0
    9.5104   -5.2101   17.2138 C   0  0  0  0  0  0  0  0  0  0  0  0
    5.2902   -8.3713   15.9116 C   0  0  0  0  0  0  0  0  0  0  0  0
  1  4  4  0
  5 15  4  0
  6 23  1  0
  9 15  4  0
 17 22  4  0
 17 25  4  0
M  END
$$$$

 Created by Python create_sdf_string function

 25 42  0  0  0  0  0  0  0  0999 V2000
   12.2196   -1.9455   17.3752 S   0  0  0  0  0  0  0  0  0  0  0  0
    8.2032   -7.1774   16.1127 C   0  0  0  0  0  0  0  0  0  0  0  0
   10.3661   -4.7374   17.5224 O   0  0  0  0  0  0  0  0  0  0  0  0
    4.3852   -7.7553   18.0995 Se  0  0  0  0  0  0  0  0  0  0  0  0
    8.1270   -3.7705   19.1223 Cl  0  0  0  0  0  0  0  0  0  0  0  0
    3.6144  -10.0462   18.4749 C   0  0  0  0  0  0  0  0  0  0  0  0
    6.8341   -7.8121   18.8535 C   0  0  0  0  0  0  0  0  0  0  0  0
    5.5248   -8.1882   17.7889 O   0  0  0  0  0  0  0  0  0  0  0  0
    8.1243   -6.8358   18.0040 N   0  0  0  0  0  0  0  0  0  0  0  0
    3.1016   -9.8452   18.0037 C   0  0  0  0  0  0  0  0  0  0  0  0
   11.2299   -5.1181   18.3037 F   0  0  0  0  0  0  0  0  0  0  0  0
    3.2856   -8.2816   16.0455 F   0  0  0  0  0  0  0  0  0  0  0  0
    7.7806   -6.6537   16.7816 P   0  0  0  0  0  0  0  0  0  0  0  0
    7.5401   -6.3459   15.1345 O   0  0  0  0  0  0  0  0  0  0  0  0
    4.2863   -8.5580   17.0068 C   0  0  0  0  0  0  0  0  0  0  0  0
   10.3752   -4.9919   16.7805 C   0  0  0  0  0  0  0  0  0  0  0  0
   10.4925   -6.5919   15.8978 O   0  0  0  0  0  0  0  0  0  0  0  0
    9.5003   -3.8365   19.4795 He  0  0  0  0  0  0  0  0  0  0  0  0
   10.9012   -4.5054   16.3990 He  0  0  0  0  0  0  0  0  0  0  0  0
    9.3680   -7.8987   19.2101 He  0  0  0  0  0  0  0  0  0  0  0  0
    7.5137   -6.8064   17.5955 He  0  0  0  0  0  0  0  0  0  0  0  0
    8.6651   -6.7958   17.5589 He  0  0  0  0  0  0  0  0  0  0  0  0
   10.8732   -5.2499   19.8857 He  0  0  0  0  0  0  0  0  0  0  0  0
    8.0348   -5.9434   13.4406 He  0  0  0  0  0  0  0  0  0  0  0  0
    2.6286   -6.7472   14.5336 He  0  0  0  0  0  0  0  0  0  0  0  0
  1  5  1  0
  1  6  4  0
  1  7  3  0
  1 10  1  0
  1 11  2  0
  1 13  2  0
  1 16  2  0
  2  8  3  0
  2 11  3  0
  2 12  1  0
  2 13  1  0
  2 15  3  0
  3  5  1  0
  3 10  1  0
  3 12  3  0
  3 15  3  0
  3 17  4  0
  4  5  4  0
  4  7  3  0
  4  8  4  0
  4 14  2  0
  4 15  4  0
  5 13  4  0
  5 15  1  0
  5 17  2  0
  6  9  4  0
  6 12  3  0
  6 14  2  0
  6 17  1  0
  7  8  2  0
  7 12  4  0
  9 11  3  0
  9 12  4  0
  9 15  3  0
 10 16  2  0
 11 14  3  0
 11 16  1  0
 12 13  3  0
 12 15  2  0
 12 16  3  0
 14 16  3  0
 15 16  4  0
M  END
$$$$

 Created by Python create_sdf_string function

 25 11  0  0  0  0  0  0  0  0999 V2000
   11.3859   -2.8744   17.3514 O   0  0  0  0  0  0  0  0  0  0  0  0
    7.9746   -7.5116   15.9712 C   0  0  0  0  0  0  0  0  0  0  0  0
   10.2845   -4.2415   19.5778 C   0  0  0  0  0  0  0  0  0  0  0  0
   10.3963   -4.6180   17.8458 C   0  0  0  0  0  0  0  0  0  0  0  0
    4.9640   -8.3629   17.3872 C   0  0  0  0  0  0  0  0  0  0  0  0
   10.7622   -4.1498   16.4906 C   0  0  0  0  0  0  0  0  0  0  0  0
    9.6506   -4.5822   19.4430 C   0  0  0  0  0  0  0  0  0  0  0  0
    9.4144   -7.4441   18.4913 C   0  0  0  0  0  0  0  0  0  0  0  0
    3.8816   -9.6241   17.8142 C   0  0  0  0  0  0  0  0  0  0  0  0
    6.7681   -8.0248   18.2091 C   0  0  0  0  0  0  0  0  0  0  0  0
    7.4577   -7.3126   17.5783 C   0  0  0  0  0  0  0  0  0  0  0  0
    5.7261   -8.2518   17.7989 C   0  0  0  0  0  0  0  0  0  0  0  0
    8.1801   -7.0088   17.8860 C   0  0  0  0  0  0  0  0  0  0  0  0
    9.1138   -6.5315   17.6218 C   0  0  0  0  0  0  0  0  0  0  0  0
    3.1609   -9.5492   17.3743 C   0  0  0  0  0  0  0  0  0  0  0  0
   10.8190   -4.7955   18.0945 C   0  0  0  0  0  0  0  0  0  0  0  0
    3.0680   -8.5724   16.2456 C   0  0  0  0  0  0  0  0  0  0  0  0
   10.5489   -5.0969   19.7893 C   0  0  0  0  0  0  0  0  0  0  0  0
    7.8851   -7.0980   16.3117 C   0  0  0  0  0  0  0  0  0  0  0  0
    7.3476   -6.6595   15.4649 C   0  0  0  0  0  0  0  0  0  0  0  0
    7.6931   -6.2920   15.2088 C   0  0  0  0  0  0  0  0  0  0  0  0
    4.2779   -8.2488   16.7131 C   0  0  0  0  0  0  0  0  0  0  0  0
   10.3666   -4.5279   16.8940 C   0  0  0  0  0  0  0  0  0  0  0  0
    9.5299   -5.9183   16.4415 C   0  0  0  0  0  0  0  0  0  0  0  0
    3.3736   -7.7042   15.5774 C   0  0  0  0  0  0  0  0  0  0  0  0
  2 19  1  0
  3  7  1  0
  5 12  4  0
  5 22  4  0
  9 15  4  0
 11 13  1  0
 14 24  1  0
 15 17  4  0
 17 25  4  0
 20 21  1  0
 22 25  4  0
M  END
$$$$

 Created by Python create_sdf_string function

 25 14  0  0  0  0  0  0  0  0999 V2000
   10.0019   -4.2021   19.3590 S   0  0  0  0  0  0  0  0  0  0  0  0
    8.0303   -7.4723   19.9712 S   0  0  0  0  0  0  0  0  0  0  0  0
    7.3282   -7.8845   17.7814 N   0  0  0  0  0  0  0  0  0  0  0  0
    7.4756   -9.4274   18.6701 O   0  0  0  0  0  0  0  0  0  0  0  0
    3.4371   -8.5828   18.3404 N   0  0  0  0  0  0  0  0  0  0  0  0
   11.1431   -4.1699   17.1828 N   0  0  0  0  0  0  0  0  0  0  0  0
    7.5733   -5.8137   15.3788 O   0  0  0  0  0  0  0  0  0  0  0  0
    4.0720   -6.5013   15.7548 Se  0  0  0  0  0  0  0  0  0  0  0  0
   10.2154   -5.6889   16.4707 S   0  0  0  0  0  0  0  0  0  0  0  0
   11.9534   -2.9234   16.0257 He  0  0  0  0  0  0  0  0  0  0  0  0
    7.5240   -7.0628   15.3003 He  0  0  0  0  0  0  0  0  0  0  0  0
    9.6483   -3.9307   19.0035 He  0  0  0  0  0  0  0  0  0  0  0  0
    4.4373   -8.2816   16.3928 He  0  0  0  0  0  0  0  0  0  0  0  0
   12.3740   -3.6651   17.1140 He  0  0  0  0  0  0  0  0  0  0  0  0
    9.2744   -3.9754   20.4585 He  0  0  0  0  0  0  0  0  0  0  0  0
    3.9478  -11.1635   17.6056 He  0  0  0  0  0  0  0  0  0  0  0  0
    6.0571   -9.8283   16.8785 He  0  0  0  0  0  0  0  0  0  0  0  0
    9.4352   -8.1613   18.3552 He  0  0  0  0  0  0  0  0  0  0  0  0
    7.2702   -6.0224   16.7801 He  0  0  0  0  0  0  0  0  0  0  0  0
    3.7997   -7.6290   17.3398 He  0  0  0  0  0  0  0  0  0  0  0  0
   11.1009   -3.6442   19.3477 He  0  0  0  0  0  0  0  0  0  0  0  0
    8.2785   -7.2323   16.3652 He  0  0  0  0  0  0  0  0  0  0  0  0
    8.7690   -7.9022   14.3485 He  0  0  0  0  0  0  0  0  0  0  0  0
   10.5247   -4.9339   17.3395 He  0  0  0  0  0  0  0  0  0  0  0  0
    4.2283   -7.8547   14.5963 He  0  0  0  0  0  0  0  0  0  0  0  0
  1  5  1  0
  1  7  3  0
  1  8  2  0
  2  3  2  0
  2  4  3  0
  2  7  3  0
  2  8  1  0
  3  6  3  0
  3  7  1  0
  3  9  1  0
  4  5  4  0
  5  7  4  0
  6  8  4  0
  7  8  4  0
M  END
$$$$

 Created by Python create_sdf_string function

 25  8  0  0  0  0  0  0  0  0999 V2000
   11.6421   -3.5606   16.2432 C   0  0  0  0  0  0  0  0  0  0  0  0
    7.4794   -7.2974   15.7315 C   0  0  0  0  0  0  0  0  0  0  0  0
   10.3167   -4.4328   19.4968 C   0  0  0  0  0  0  0  0  0  0  0  0
   10.2414   -4.5541   18.7929 C   0  0  0  0  0  0  0  0  0  0  0  0
    4.5613   -8.4116   16.4108 C   0  0  0  0  0  0  0  0  0  0  0  0
   11.4612   -3.5327   16.7042 C   0  0  0  0  0  0  0  0  0  0  0  0
   10.1054   -4.3365   20.2631 C   0  0  0  0  0  0  0  0  0  0  0  0
    8.4586   -7.3861   18.6257 C   0  0  0  0  0  0  0  0  0  0  0  0
    4.4596   -9.9570   17.8832 C   0  0  0  0  0  0  0  0  0  0  0  0
    7.5237   -7.8853   17.4572 C   0  0  0  0  0  0  0  0  0  0  0  0
    7.1805   -8.4752   17.9828 C   0  0  0  0  0  0  0  0  0  0  0  0
    5.9297   -9.2176   17.2762 C   0  0  0  0  0  0  0  0  0  0  0  0
    9.2030   -7.8192   17.8948 C   0  0  0  0  0  0  0  0  0  0  0  0
    7.6496   -6.4080   16.5286 C   0  0  0  0  0  0  0  0  0  0  0  0
    4.0496   -9.5423   17.5626 C   0  0  0  0  0  0  0  0  0  0  0  0
   11.1197   -3.9205   16.8431 C   0  0  0  0  0  0  0  0  0  0  0  0
    4.4372   -8.5154   17.0230 C   0  0  0  0  0  0  0  0  0  0  0  0
   10.7524   -3.6933   19.3810 C   0  0  0  0  0  0  0  0  0  0  0  0
    8.4454   -7.2605   16.4275 C   0  0  0  0  0  0  0  0  0  0  0  0
    7.4920   -5.9245   15.6933 O   0  0  0  0  0  0  0  0  0  0  0  0
    8.3476   -8.0424   15.1905 C   0  0  0  0  0  0  0  0  0  0  0  0
    4.7172   -7.4610   15.7308 C   0  0  0  0  0  0  0  0  0  0  0  0
   10.1166   -4.9030   17.3075 C   0  0  0  0  0  0  0  0  0  0  0  0
    9.6572   -5.3256   16.8649 C   0  0  0  0  0  0  0  0  0  0  0  0
    4.4373   -7.9709   15.6552 C   0  0  0  0  0  0  0  0  0  0  0  0
  1  6  4  0
  1 16  4  0
  2 21  1  0
  5 25  4  0
  6 16  4  0
  9 15  4  0
 22 25  4  0
 23 24  4  0
M  END
$$$$

 Created by Python create_sdf_string function

 25 22  0  0  0  0  0  0  0  0999 V2000
    9.1371   -2.5428   19.9682 S   0  0  0  0  0  0  0  0  0  0  0  0
    6.9252   -8.9464   17.5075 Cl  0  0  0  0  0  0  0  0  0  0  0  0
   10.4186   -8.5626   19.6045 O   0  0  0  0  0  0  0  0  0  0  0  0
    4.5521   -7.5849   18.1426 P   0  0  0  0  0  0  0  0  0  0  0  0
    4.8334   -7.7956   15.9261 O   0  0  0  0  0  0  0  0  0  0  0  0
   10.8777   -2.9005   19.0715 C   0  0  0  0  0  0  0  0  0  0  0  0
    8.2991   -6.6689   17.4422 C   0  0  0  0  0  0  0  0  0  0  0  0
    7.1291   -7.6458   16.6026 C   0  0  0  0  0  0  0  0  0  0  0  0
    9.8834   -8.4070   14.2359 I   0  0  0  0  0  0  0  0  0  0  0  0
    3.9933   -8.0077   14.7980 N   0  0  0  0  0  0  0  0  0  0  0  0
    8.8080   -3.0243   16.8372 C   0  0  0  0  0  0  0  0  0  0  0  0
    7.9035   -6.1109   16.1693 C   0  0  0  0  0  0  0  0  0  0  0  0
    4.6884   -8.3377   16.5265 C   0  0  0  0  0  0  0  0  0  0  0  0
   10.6785   -3.1279   15.9038 He  0  0  0  0  0  0  0  0  0  0  0  0
    7.1531   -6.5857   15.1560 He  0  0  0  0  0  0  0  0  0  0  0  0
   12.1288   -5.8337   18.0251 He  0  0  0  0  0  0  0  0  0  0  0  0
    3.3508   -7.5725   17.4967 He  0  0  0  0  0  0  0  0  0  0  0  0
   11.8519   -3.0254   16.0570 He  0  0  0  0  0  0  0  0  0  0  0  0
    9.2903   -2.9293   20.6418 He  0  0  0  0  0  0  0  0  0  0  0  0
    8.7120   -8.5085   18.7750 He  0  0  0  0  0  0  0  0  0  0  0  0
    5.1751  -10.3571   19.7597 He  0  0  0  0  0  0  0  0  0  0  0  0
    9.1659   -8.8468   18.3176 He  0  0  0  0  0  0  0  0  0  0  0  0
    6.9948   -9.3366   17.7291 He  0  0  0  0  0  0  0  0  0  0  0  0
    6.9169   -6.8522   16.7951 He  0  0  0  0  0  0  0  0  0  0  0  0
   11.7867   -4.9997   16.8858 He  0  0  0  0  0  0  0  0  0  0  0  0
  1  3  4  0
  1  6  3  0
  1 12  3  0
  2  3  4  0
  2  7  1  0
  2 12  3  0
  3  4  2  0
  3  9  3  0
  3 13  1  0
  4  7  3  0
  4 11  1  0
  4 13  2  0
  5 11  2  0
  5 12  4  0
  5 13  4  0
  6  9  4  0
  6 13  4  0
  7  9  3  0
  7 10  2  0
  7 12  1  0
 10 11  1  0
 11 13  1  0
M  END
$$$$

 Created by Python create_sdf_string function

 25  5  0  0  0  0  0  0  0  0999 V2000
   10.8600   -3.7633   16.5228 C   0  0  0  0  0  0  0  0  0  0  0  0
    7.3740   -6.9768   15.5103 C   0  0  0  0  0  0  0  0  0  0  0  0
   10.2139   -4.1584   19.6963 C   0  0  0  0  0  0  0  0  0  0  0  0
   10.8329   -5.4134   18.3954 C   0  0  0  0  0  0  0  0  0  0  0  0
    3.8112   -8.3795   16.8590 C   0  0  0  0  0  0  0  0  0  0  0  0
   11.4284   -3.4853   16.4364 C   0  0  0  0  0  0  0  0  0  0  0  0
   10.2624   -4.2344   20.1286 C   0  0  0  0  0  0  0  0  0  0  0  0
    8.7352   -7.8359   18.2219 F   0  0  0  0  0  0  0  0  0  0  0  0
    5.4333   -9.1807   18.6615 O   0  0  0  0  0  0  0  0  0  0  0  0
    9.0899   -8.1057   17.9406 C   0  0  0  0  0  0  0  0  0  0  0  0
    6.9589   -8.6191   17.5668 C   0  0  0  0  0  0  0  0  0  0  0  0
    6.8271   -8.3500   17.3820 C   0  0  0  0  0  0  0  0  0  0  0  0
    9.9033   -7.4661   18.7308 C   0  0  0  0  0  0  0  0  0  0  0  0
    6.9683   -7.0610   16.5335 C   0  0  0  0  0  0  0  0  0  0  0  0
    4.7317   -8.3946   17.5442 C   0  0  0  0  0  0  0  0  0  0  0  0
   10.8120   -4.7801   17.6226 C   0  0  0  0  0  0  0  0  0  0  0  0
    5.0626   -8.0175   16.0903 C   0  0  0  0  0  0  0  0  0  0  0  0
   10.8099   -3.5144   18.9398 C   0  0  0  0  0  0  0  0  0  0  0  0
    8.8099   -6.5457   17.3635 C   0  0  0  0  0  0  0  0  0  0  0  0
    7.1705   -7.6518   16.5520 C   0  0  0  0  0  0  0  0  0  0  0  0
    8.6369   -8.2881   15.2156 F   0  0  0  0  0  0  0  0  0  0  0  0
    4.1872   -7.9825   15.7513 C   0  0  0  0  0  0  0  0  0  0  0  0
    9.7431   -4.0748   16.5727 C   0  0  0  0  0  0  0  0  0  0  0  0
    8.4383   -6.2008   16.5990 C   0  0  0  0  0  0  0  0  0  0  0  0
    4.7871   -8.2909   16.5358 C   0  0  0  0  0  0  0  0  0  0  0  0
  1  6  4  0
  3  7  1  0
  9 15  4  0
 11 12  1  0
 19 24  1  0
M  END
$$$$

 Created by Python create_sdf_string function

 25 21  0  0  0  0  0  0  0  0999 V2000
    9.2659   -4.0476   20.6609 C   0  0  0  0  0  0  0  0  0  0  0  0
   12.4725   -4.9905   18.3333 P   0  0  0  0  0  0  0  0  0  0  0  0
    2.3575   -8.4287   17.1120 F   0  0  0  0  0  0  0  0  0  0  0  0
    9.3141   -4.5813   19.5690 O   0  0  0  0  0  0  0  0  0  0  0  0
    9.4976   -7.3638   19.7193 Cl  0  0  0  0  0  0  0  0  0  0  0  0
    9.8820   -8.4282   18.3159 C   0  0  0  0  0  0  0  0  0  0  0  0
    5.9491   -8.0992   17.5864 O   0  0  0  0  0  0  0  0  0  0  0  0
    7.7837   -8.7258   16.2085 P   0  0  0  0  0  0  0  0  0  0  0  0
    4.3920   -8.4374   17.4227 C   0  0  0  0  0  0  0  0  0  0  0  0
    8.9330   -4.0644   18.4939 I   0  0  0  0  0  0  0  0  0  0  0  0
    6.5616   -7.9756   17.1420 C   0  0  0  0  0  0  0  0  0  0  0  0
    5.2857   -7.9712   15.3450 C   0  0  0  0  0  0  0  0  0  0  0  0
    8.1086   -5.3122   17.1761 C   0  0  0  0  0  0  0  0  0  0  0  0
   11.6341   -4.9876   17.5479 He  0  0  0  0  0  0  0  0  0  0  0  0
    9.3807   -7.8844   14.3427 He  0  0  0  0  0  0  0  0  0  0  0  0
   11.2000   -1.9565   16.9584 He  0  0  0  0  0  0  0  0  0  0  0  0
    4.6945   -9.2660   19.2151 He  0  0  0  0  0  0  0  0  0  0  0  0
    7.2888   -8.8360   17.2447 He  0  0  0  0  0  0  0  0  0  0  0  0
    8.9174   -6.9251   17.1297 He  0  0  0  0  0  0  0  0  0  0  0  0
    4.6032   -6.5965   17.3449 He  0  0  0  0  0  0  0  0  0  0  0  0
    9.8954   -5.5279   17.7402 He  0  0  0  0  0  0  0  0  0  0  0  0
   10.0309   -7.6734   16.5094 He  0  0  0  0  0  0  0  0  0  0  0  0
    8.5148   -7.0873   15.1241 He  0  0  0  0  0  0  0  0  0  0  0  0
   10.1722   -3.5728   16.0351 He  0  0  0  0  0  0  0  0  0  0  0  0
    5.1378   -7.6020   15.8373 He  0  0  0  0  0  0  0  0  0  0  0  0
  1  2  3  0
  1  5  1  0
  1  8  4  0
  1 11  1  0
  2  4  3  0
  2  7  1  0
  2  9  3  0
  2 13  4  0
  3  7  4  0
  3  8  1  0
  3  9  4  0
  3 11  3  0
  3 13  2  0
  4  7  3  0
  4 11  3  0
  5 10  3  0
  6 11  1  0
  7 12  4  0
 10 13  1  0
 11 12  4  0
 12 13  2  0
M  END
$$$$

 Created by Python create_sdf_string function

 25  7  0  0  0  0  0  0  0  0999 V2000
   11.1780   -4.3647   17.6388 C   0  0  0  0  0  0  0  0  0  0  0  0
    8.6824   -7.9179   14.9568 F   0  0  0  0  0  0  0  0  0  0  0  0
   10.1941   -4.4661   20.3126 C   0  0  0  0  0  0  0  0  0  0  0  0
   11.5680   -4.5757   18.3070 C   0  0  0  0  0  0  0  0  0  0  0  0
    3.1176   -8.6944   16.9014 C   0  0  0  0  0  0  0  0  0  0  0  0
   11.2638   -3.1182   16.9477 O   0  0  0  0  0  0  0  0  0  0  0  0
    9.8988   -4.7049   19.6296 O   0  0  0  0  0  0  0  0  0  0  0  0
    9.8853   -6.7101   19.2639 C   0  0  0  0  0  0  0  0  0  0  0  0
    5.1600   -9.0880   18.3492 C   0  0  0  0  0  0  0  0  0  0  0  0
    9.4466   -7.8583   18.1945 C   0  0  0  0  0  0  0  0  0  0  0  0
    7.5340   -8.3837   17.4268 C   0  0  0  0  0  0  0  0  0  0  0  0
    6.2331   -8.2992   17.5280 C   0  0  0  0  0  0  0  0  0  0  0  0
    8.8041   -7.3003   17.3615 C   0  0  0  0  0  0  0  0  0  0  0  0
    7.8820   -8.4255   16.2118 C   0  0  0  0  0  0  0  0  0  0  0  0
    4.4607   -7.8222   16.7064 C   0  0  0  0  0  0  0  0  0  0  0  0
    9.9676   -5.3477   18.0651 C   0  0  0  0  0  0  0  0  0  0  0  0
    3.9741   -8.7440   17.2793 C   0  0  0  0  0  0  0  0  0  0  0  0
    9.6714   -4.6716   18.3083 C   0  0  0  0  0  0  0  0  0  0  0  0
    9.6940   -7.0559   17.0835 C   0  0  0  0  0  0  0  0  0  0  0  0
    6.5523   -8.0308   16.9284 C   0  0  0  0  0  0  0  0  0  0  0  0
    8.3480   -7.2308   15.5053 C   0  0  0  0  0  0  0  0  0  0  0  0
    5.5703   -7.7901   15.7455 C   0  0  0  0  0  0  0  0  0  0  0  0
   10.2230   -3.9194   16.3279 C   0  0  0  0  0  0  0  0  0  0  0  0
    8.8351   -5.5700   16.7878 C   0  0  0  0  0  0  0  0  0  0  0  0
    4.9802   -7.6448   15.9791 C   0  0  0  0  0  0  0  0  0  0  0  0
  1  4  1  0
  2 21  1  0
  5 17  4  0
  9 17  4  0
 10 13  1  0
 15 25  4  0
 22 25  4  0
M  END
$$$$

 Created by Python create_sdf_string function

 25 48  0  0  0  0  0  0  0  0999 V2000
   12.5395   -3.0624   17.3243 P   0  0  0  0  0  0  0  0  0  0  0  0
    9.7144   -7.1464   15.4017 N   0  0  0  0  0  0  0  0  0  0  0  0
   11.3976   -3.9264   21.4329 C   0  0  0  0  0  0  0  0  0  0  0  0
   10.3894   -4.2411   19.0073 N   0  0  0  0  0  0  0  0  0  0  0  0
   10.5057   -8.8846   20.6578 Cl  0  0  0  0  0  0  0  0  0  0  0  0
    3.5485  -10.9637   18.5937 Br  0  0  0  0  0  0  0  0  0  0  0  0
    7.8518   -8.7523   16.8251 F   0  0  0  0  0  0  0  0  0  0  0  0
    6.6717   -7.4812   17.3974 C   0  0  0  0  0  0  0  0  0  0  0  0
    6.5698   -8.5241   16.4679 B   0  0  0  0  0  0  0  0  0  0  0  0
    4.9655   -9.1898   17.9375 O   0  0  0  0  0  0  0  0  0  0  0  0
    9.3911   -3.3655   18.2417 Br  0  0  0  0  0  0  0  0  0  0  0  0
   10.4391   -6.7693   17.2793 C   0  0  0  0  0  0  0  0  0  0  0  0
    6.5022   -7.6727   17.2635 C   0  0  0  0  0  0  0  0  0  0  0  0
    9.0254   -6.7977   16.7632 C   0  0  0  0  0  0  0  0  0  0  0  0
    3.5942   -7.9353   15.8033 C   0  0  0  0  0  0  0  0  0  0  0  0
   10.0337   -3.4741   16.2643 N   0  0  0  0  0  0  0  0  0  0  0  0
    7.9183   -6.7262   17.6818 N   0  0  0  0  0  0  0  0  0  0  0  0
   11.0594   -3.7020   16.5633 He  0  0  0  0  0  0  0  0  0  0  0  0
    3.1910   -8.5447   17.3149 He  0  0  0  0  0  0  0  0  0  0  0  0
   11.4631   -2.2223   17.6652 He  0  0  0  0  0  0  0  0  0  0  0  0
   10.3177   -7.3919   17.0686 He  0  0  0  0  0  0  0  0  0  0  0  0
    8.9960   -7.7097   19.3412 He  0  0  0  0  0  0  0  0  0  0  0  0
    4.3046   -7.1906   15.9969 He  0  0  0  0  0  0  0  0  0  0  0  0
   10.9436   -4.8553   18.4243 He  0  0  0  0  0  0  0  0  0  0  0  0
    6.0012   -7.0929   17.1392 He  0  0  0  0  0  0  0  0  0  0  0  0
  1  3  4  0
  1  4  2  0
  1  5  3  0
  1  6  1  0
  1  9  4  0
  1 13  1  0
  1 16  2  0
  1 17  4  0
  2  3  4  0
  2  5  2  0
  2 12  4  0
  2 13  3  0
  2 15  4  0
  2 16  3  0
  3  8  1  0
  3 13  4  0
  3 14  3  0
  3 15  3  0
  3 16  1  0
  3 17  2  0
  4  5  3  0
  4  7  3  0
  4 16  3  0
  5  8  1  0
  5  9  4  0
  5 12  4  0
  6  7  2  0
  6 10  2  0
  6 15  1  0
  7 10  1  0
  7 11  3  0
  7 14  4  0
  7 15  1  0
  7 17  2  0
  8 13  1  0
  9 10  1  0
  9 12  1  0
  9 14  2  0
 10 14  3  0
 10 16  4  0
 10 17  4  0
 11 13  3  0
 12 14  3  0
 12 16  2  0
 13 15  1  0
 13 16  3  0
 14 15  1  0
 16 17  2  0
M  END
$$$$

 Created by Python create_sdf_string function

 25  6  0  0  0  0  0  0  0  0999 V2000
   11.5065   -3.2889   16.9682 C   0  0  0  0  0  0  0  0  0  0  0  0
    8.9589   -6.9224   15.9237 C   0  0  0  0  0  0  0  0  0  0  0  0
   10.9240   -4.1503   20.4343 C   0  0  0  0  0  0  0  0  0  0  0  0
   10.8844   -3.7857   16.5994 C   0  0  0  0  0  0  0  0  0  0  0  0
    3.3918   -9.1070   16.8887 C   0  0  0  0  0  0  0  0  0  0  0  0
   11.2465   -2.7048   17.8974 C   0  0  0  0  0  0  0  0  0  0  0  0
   10.5800   -4.3576   19.2903 C   0  0  0  0  0  0  0  0  0  0  0  0
    9.8507   -7.9683   19.0979 C   0  0  0  0  0  0  0  0  0  0  0  0
    4.1066  -10.2447   18.0425 N   0  0  0  0  0  0  0  0  0  0  0  0
    9.7814   -6.9112   17.6406 C   0  0  0  0  0  0  0  0  0  0  0  0
    8.0302   -8.4004   16.6659 C   0  0  0  0  0  0  0  0  0  0  0  0
    6.4762   -7.8347   17.2818 C   0  0  0  0  0  0  0  0  0  0  0  0
    9.3047   -7.6990   18.5913 C   0  0  0  0  0  0  0  0  0  0  0  0
    6.0974   -8.3992   16.7297 C   0  0  0  0  0  0  0  0  0  0  0  0
    4.1874   -7.8454   16.2211 C   0  0  0  0  0  0  0  0  0  0  0  0
   10.8264   -4.9882   18.6763 C   0  0  0  0  0  0  0  0  0  0  0  0
    4.9308   -9.4364   17.7183 C   0  0  0  0  0  0  0  0  0  0  0  0
   10.3566   -3.9561   18.3079 C   0  0  0  0  0  0  0  0  0  0  0  0
    9.9869   -6.0419   17.6442 C   0  0  0  0  0  0  0  0  0  0  0  0
    6.3994   -7.7903   17.2334 C   0  0  0  0  0  0  0  0  0  0  0  0
    8.7507   -6.6423   16.7815 C   0  0  0  0  0  0  0  0  0  0  0  0
    3.6443   -8.4899   16.4747 C   0  0  0  0  0  0  0  0  0  0  0  0
   10.2017   -3.9496   16.3365 C   0  0  0  0  0  0  0  0  0  0  0  0
    8.1336   -6.6342   17.5480 C   0  0  0  0  0  0  0  0  0  0  0  0
    5.9981   -7.6961   16.8955 C   0  0  0  0  0  0  0  0  0  0  0  0
  4 23  4  0
  5 22  4  0
  8 13  1  0
  9 17  4  0
 12 20  1  0
 15 22  4  0
M  END
$$$$

 Created by Python create_sdf_string function

 25 53  0  0  0  0  0  0  0  0999 V2000
   11.1679   -2.0733   15.0557 C   0  0  0  0  0  0  0  0  0  0  0  0
    8.4501   -6.7086   14.8839 C   0  0  0  0  0  0  0  0  0  0  0  0
    8.6881   -3.4164   21.0357 C   0  0  0  0  0  0  0  0  0  0  0  0
   11.0738   -4.3471   15.9686 S   0  0  0  0  0  0  0  0  0  0  0  0
    4.4476   -8.4419   16.8839 C   0  0  0  0  0  0  0  0  0  0  0  0
   10.0764   -2.9882   18.2411 S   0  0  0  0  0  0  0  0  0  0  0  0
   12.1011   -3.5887   19.5020 C   0  0  0  0  0  0  0  0  0  0  0  0
    9.5648   -7.6853   18.2244 I   0  0  0  0  0  0  0  0  0  0  0  0
   10.9329   -7.4441   18.4619 C   0  0  0  0  0  0  0  0  0  0  0  0
    9.7703   -8.1305   18.7473 C   0  0  0  0  0  0  0  0  0  0  0  0
    3.7009   -8.5365   15.9725 I   0  0  0  0  0  0  0  0  0  0  0  0
   10.5395   -4.9671   18.4307 N   0  0  0  0  0  0  0  0  0  0  0  0
   10.8748   -6.9152   18.0306 F   0  0  0  0  0  0  0  0  0  0  0  0
    4.8721   -9.6332   17.4236 N   0  0  0  0  0  0  0  0  0  0  0  0
    9.4172   -8.1752   17.1856 F   0  0  0  0  0  0  0  0  0  0  0  0
    2.8925   -9.7322   16.1877 C   0  0  0  0  0  0  0  0  0  0  0  0
    7.0784   -5.9228   19.4192 I   0  0  0  0  0  0  0  0  0  0  0  0
    4.9789   -9.6577   18.3238 He  0  0  0  0  0  0  0  0  0  0  0  0
    8.1106   -9.7278   16.4196 He  0  0  0  0  0  0  0  0  0  0  0  0
    5.8327   -7.6536   17.3704 He  0  0  0  0  0  0  0  0  0  0  0  0
    6.0792   -7.9285   16.9345 He  0  0  0  0  0  0  0  0  0  0  0  0
    4.3940   -9.6334   16.0470 He  0  0  0  0  0  0  0  0  0  0  0  0
    8.9606   -3.6348   17.6392 He  0  0  0  0  0  0  0  0  0  0  0  0
   10.9123   -2.8449   16.7459 He  0  0  0  0  0  0  0  0  0  0  0  0
    7.4675   -7.0429   16.6090 He  0  0  0  0  0  0  0  0  0  0  0  0
  1  2  4  0
  1 12  1  0
  1 13  1  0
  1 14  1  0
  1 17  3  0
  2  6  4  0
  2  8  1  0
  2 13  1  0
  2 16  1  0
  3  7  2  0
  3  8  1  0
  3 13  2  0
  3 14  1  0
  4  6  3  0
  4  7  1  0
  4  8  2  0
  4 11  3  0
  4 12  2  0
  4 13  3  0
  4 14  1  0
  4 15  3  0
  5  6  2  0
  5  7  2  0
  5  8  2  0
  5 11  1  0
  5 12  4  0
  5 14  2  0
  6  8  2  0
  6 11  1  0
  6 12  3  0
  6 13  4  0
  6 16  2  0
  7 10  1  0
  7 16  4  0
  8  9  2  0
  8 10  1  0
  8 12  1  0
  8 14  2  0
  8 15  4  0
  8 16  2  0
  8 17  2  0
  9 13  4  0
 10 11  4  0
 10 14  1  0
 11 16  4  0
 11 17  1  0
 12 14  1  0
 12 15  3  0
 12 16  4  0
 12 17  1  0
 13 16  1  0
 15 16  3  0
 16 17  3  0
M  END
$$$$

 Created by Python create_sdf_string function

 25  7  0  0  0  0  0  0  0  0999 V2000
   11.2589   -3.3769   15.8296 C   0  0  0  0  0  0  0  0  0  0  0  0
    8.2999   -6.8822   15.7132 C   0  0  0  0  0  0  0  0  0  0  0  0
   10.1064   -4.1522   20.3596 C   0  0  0  0  0  0  0  0  0  0  0  0
   10.8340   -4.2998   16.4336 C   0  0  0  0  0  0  0  0  0  0  0  0
    4.6550   -8.4336   16.8636 C   0  0  0  0  0  0  0  0  0  0  0  0
   10.5065   -3.7222   18.0286 C   0  0  0  0  0  0  0  0  0  0  0  0
   10.7768   -4.1092   19.6725 C   0  0  0  0  0  0  0  0  0  0  0  0
    9.2841   -7.2515   18.0640 C   0  0  0  0  0  0  0  0  0  0  0  0
    5.1359   -9.2579   17.9001 C   0  0  0  0  0  0  0  0  0  0  0  0
   10.4469   -6.7190   18.5362 C   0  0  0  0  0  0  0  0  0  0  0  0
    7.8710   -8.6158   16.1358 C   0  0  0  0  0  0  0  0  0  0  0  0
    6.0135   -7.8955   17.2178 C   0  0  0  0  0  0  0  0  0  0  0  0
    9.2768   -7.6568   18.3263 C   0  0  0  0  0  0  0  0  0  0  0  0
    6.4846   -7.9702   16.8959 C   0  0  0  0  0  0  0  0  0  0  0  0
    3.4854   -8.7772   16.4065 C   0  0  0  0  0  0  0  0  0  0  0  0
   10.3887   -5.0352   18.6222 C   0  0  0  0  0  0  0  0  0  0  0  0
    4.0135   -9.1742   16.2968 C   0  0  0  0  0  0  0  0  0  0  0  0
    9.8531   -4.1127   17.3098 C   0  0  0  0  0  0  0  0  0  0  0  0
   10.3403   -6.1153   18.3175 C   0  0  0  0  0  0  0  0  0  0  0  0
    4.9767   -9.1225   17.4332 C   0  0  0  0  0  0  0  0  0  0  0  0
    8.8332   -8.0911   17.0390 C   0  0  0  0  0  0  0  0  0  0  0  0
    2.9307   -9.1367   16.4016 C   0  0  0  0  0  0  0  0  0  0  0  0
   11.2172   -3.3931   16.7503 C   0  0  0  0  0  0  0  0  0  0  0  0
    7.4735   -6.2802   18.4432 C   0  0  0  0  0  0  0  0  0  0  0  0
    7.5290   -6.9222   16.4336 C   0  0  0  0  0  0  0  0  0  0  0  0
  2 25  1  0
  3  7  1  0
  8 13  1  0
  9 20  4  0
 10 19  1  0
 12 14  1  0
 15 22  4  0
M  END
$$$$

 Created by Python create_sdf_string function

 25 37  0  0  0  0  0  0  0  0999 V2000
    9.0091   -6.2109   16.6853 N   0  0  0  0  0  0  0  0  0  0  0  0
    9.2003   -5.5782   19.4965 Cl  0  0  0  0  0  0  0  0  0  0  0  0
   11.3856   -4.1994   14.6026 C   0  0  0  0  0  0  0  0  0  0  0  0
    9.6933   -2.1257   19.3349 O   0  0  0  0  0  0  0  0  0  0  0  0
    4.9802   -9.8421   18.3504 C   0  0  0  0  0  0  0  0  0  0  0  0
   10.2608   -7.5921   17.7139 N   0  0  0  0  0  0  0  0  0  0  0  0
    7.6906   -6.2846   15.2619 C   0  0  0  0  0  0  0  0  0  0  0  0
    5.6532   -6.7889   16.2184 F   0  0  0  0  0  0  0  0  0  0  0  0
    9.5511   -8.8015   17.8187 N   0  0  0  0  0  0  0  0  0  0  0  0
    6.0625   -8.3095   16.4727 Cl  0  0  0  0  0  0  0  0  0  0  0  0
   10.8467   -5.3498   17.7588 N   0  0  0  0  0  0  0  0  0  0  0  0
   11.1853   -3.2897   17.9666 C   0  0  0  0  0  0  0  0  0  0  0  0
   10.3528   -6.0005   17.1580 Cl  0  0  0  0  0  0  0  0  0  0  0  0
    4.4130   -9.3229   15.3665 C   0  0  0  0  0  0  0  0  0  0  0  0
    9.3502   -4.6249   16.9114 He  0  0  0  0  0  0  0  0  0  0  0  0
    4.8437   -8.8075   18.1819 He  0  0  0  0  0  0  0  0  0  0  0  0
   10.1943   -3.8468   19.4326 He  0  0  0  0  0  0  0  0  0  0  0  0
    9.0502   -6.6227   19.9749 He  0  0  0  0  0  0  0  0  0  0  0  0
    3.7595   -9.0756   16.3708 He  0  0  0  0  0  0  0  0  0  0  0  0
    2.5397   -7.7220   16.6151 He  0  0  0  0  0  0  0  0  0  0  0  0
   10.7984   -9.8972   17.0475 He  0  0  0  0  0  0  0  0  0  0  0  0
    2.5484  -10.0440   15.9036 He  0  0  0  0  0  0  0  0  0  0  0  0
   11.9062   -2.6099   15.5900 He  0  0  0  0  0  0  0  0  0  0  0  0
    7.4678   -5.0343   17.3510 He  0  0  0  0  0  0  0  0  0  0  0  0
    7.5265   -6.3336   17.6457 He  0  0  0  0  0  0  0  0  0  0  0  0
  1  6  4  0
  1  7  3  0
  2  4  2  0
  2  5  3  0
  2  6  2  0
  2  7  3  0
  2  9  3  0
  2 10  3  0
  2 12  4  0
  2 13  4  0
  2 14  2  0
  3  6  1  0
  3  7  4  0
  3 10  1  0
  3 13  1  0
  4  5  1  0
  4  6  2  0
  4  8  1  0
  4 10  1  0
  4 12  2  0
  4 13  2  0
  4 14  2  0
  5  6  2  0
  5 10  1  0
  5 12  4  0
  7  8  3  0
  7  9  2  0
  7 11  2  0
  7 12  3  0
  8 11  4  0
  8 13  1  0
  8 14  2  0
 10 12  3  0
 10 13  3  0
 10 14  3  0
 11 14  2  0
 12 14  4  0
M  END
$$$$

 Created by Python create_sdf_string function

 25  5  0  0  0  0  0  0  0  0999 V2000
    9.9472   -4.4012   16.7073 C   0  0  0  0  0  0  0  0  0  0  0  0
    8.6534   -6.3583   16.7571 C   0  0  0  0  0  0  0  0  0  0  0  0
    9.9536   -5.2601   19.1932 C   0  0  0  0  0  0  0  0  0  0  0  0
   11.1225   -3.8429   15.7017 C   0  0  0  0  0  0  0  0  0  0  0  0
    5.2081   -8.7902   17.5792 C   0  0  0  0  0  0  0  0  0  0  0  0
   10.8652   -3.1445   19.0264 O   0  0  0  0  0  0  0  0  0  0  0  0
   10.5102   -4.2772   19.3603 C   0  0  0  0  0  0  0  0  0  0  0  0
    9.6641   -6.4223   19.0134 C   0  0  0  0  0  0  0  0  0  0  0  0
    5.0338   -9.1353   17.7349 C   0  0  0  0  0  0  0  0  0  0  0  0
    9.5624   -7.4636   17.8741 C   0  0  0  0  0  0  0  0  0  0  0  0
    7.5041   -6.7453   15.7971 C   0  0  0  0  0  0  0  0  0  0  0  0
    5.9609   -7.3851   16.1476 C   0  0  0  0  0  0  0  0  0  0  0  0
    8.8268   -8.2365   17.7309 C   0  0  0  0  0  0  0  0  0  0  0  0
    6.0731   -8.1914   16.7558 C   0  0  0  0  0  0  0  0  0  0  0  0
    3.9036   -8.7911   16.6204 C   0  0  0  0  0  0  0  0  0  0  0  0
   10.4693   -4.9527   17.5697 C   0  0  0  0  0  0  0  0  0  0  0  0
    3.2062   -8.5665   16.3958 C   0  0  0  0  0  0  0  0  0  0  0  0
   10.9972   -3.3681   17.8275 C   0  0  0  0  0  0  0  0  0  0  0  0
   10.0707   -5.4896   17.3458 C   0  0  0  0  0  0  0  0  0  0  0  0
    4.3290   -8.7531   16.0166 C   0  0  0  0  0  0  0  0  0  0  0  0
    9.3133   -8.4880   17.0065 F   0  0  0  0  0  0  0  0  0  0  0  0
    2.6327   -9.1531   16.3294 C   0  0  0  0  0  0  0  0  0  0  0  0
   11.6374   -3.3500   16.0855 C   0  0  0  0  0  0  0  0  0  0  0  0
    8.0640   -5.8857   16.7617 C   0  0  0  0  0  0  0  0  0  0  0  0
    7.5471   -7.0142   17.5285 C   0  0  0  0  0  0  0  0  0  0  0  0
  3  7  1  0
  4 23  4  0
  5  9  4  0
 10 21  1  0
 13 21  1  0
M  END
$$$$

 Created by Python create_sdf_string function

 25 34  0  0  0  0  0  0  0  0999 V2000
    8.1102   -4.1744   18.3036 C   0  0  0  0  0  0  0  0  0  0  0  0
    6.9979   -4.1753   16.3462 N   0  0  0  0  0  0  0  0  0  0  0  0
   12.4206   -3.4247   16.5627 F   0  0  0  0  0  0  0  0  0  0  0  0
    6.9172   -9.3588   16.4083 F   0  0  0  0  0  0  0  0  0  0  0  0
   10.7181   -4.0536   19.3167 N   0  0  0  0  0  0  0  0  0  0  0  0
   10.5715   -4.1718   21.7285 C   0  0  0  0  0  0  0  0  0  0  0  0
    8.2123   -6.9599   16.9565 S   0  0  0  0  0  0  0  0  0  0  0  0
    5.8524   -8.7113   16.4597 F   0  0  0  0  0  0  0  0  0  0  0  0
    5.9704   -8.8671   17.9684 S   0  0  0  0  0  0  0  0  0  0  0  0
    4.4397   -9.1451   15.2289 O   0  0  0  0  0  0  0  0  0  0  0  0
   11.6041   -3.7573   17.9026 C   0  0  0  0  0  0  0  0  0  0  0  0
    9.9323   -4.7657   16.2913 F   0  0  0  0  0  0  0  0  0  0  0  0
    7.7813   -5.1467   17.1074 O   0  0  0  0  0  0  0  0  0  0  0  0
    7.3162   -6.6423   17.0752 C   0  0  0  0  0  0  0  0  0  0  0  0
   10.1955   -5.6970   19.2291 He  0  0  0  0  0  0  0  0  0  0  0  0
   10.7812   -5.3479   19.9323 He  0  0  0  0  0  0  0  0  0  0  0  0
    5.5219   -9.1121   18.3219 He  0  0  0  0  0  0  0  0  0  0  0  0
    7.9217   -6.0192   15.4601 He  0  0  0  0  0  0  0  0  0  0  0  0
    8.4437   -8.3509   17.0962 He  0  0  0  0  0  0  0  0  0  0  0  0
    3.4741   -8.0970   16.5243 He  0  0  0  0  0  0  0  0  0  0  0  0
   11.6116   -3.7635   16.5372 He  0  0  0  0  0  0  0  0  0  0  0  0
    2.8280   -8.6079   17.6795 He  0  0  0  0  0  0  0  0  0  0  0  0
    9.8429   -7.3077   16.0698 He  0  0  0  0  0  0  0  0  0  0  0  0
    2.4313   -9.1519   16.7488 He  0  0  0  0  0  0  0  0  0  0  0  0
   12.4951   -3.8467   16.9113 He  0  0  0  0  0  0  0  0  0  0  0  0
  1  3  4  0
  1  5  2  0
  1  6  4  0
  1  9  4  0
  1 11  3  0
  1 13  3  0
  2  6  3  0
  2  9  3  0
  2 13  2  0
  2 14  4  0
  3  7  1  0
  3 11  2  0
  3 14  2  0
  4  6  2  0
  4  7  2  0
  4 11  4  0
  4 12  1  0
  4 13  3  0
  4 14  2  0
  5  6  1  0
  5  7  1  0
  5 11  3  0
  5 14  1  0
  6  9  2  0
  6 10  4  0
  6 11  1  0
  6 13  3  0
  7 10  3  0
  8 10  2  0
  9 12  4  0
  9 14  3  0
 10 14  1  0
 11 14  3  0
 13 14  1  0
M  END
$$$$

 Created by Python create_sdf_string function

 25  5  0  0  0  0  0  0  0  0999 V2000
    9.6667   -4.8878   18.5240 C   0  0  0  0  0  0  0  0  0  0  0  0
    7.9952   -4.9500   15.9016 O   0  0  0  0  0  0  0  0  0  0  0  0
   10.2689   -5.3965   18.8182 C   0  0  0  0  0  0  0  0  0  0  0  0
   11.8908   -3.4404   16.6022 C   0  0  0  0  0  0  0  0  0  0  0  0
    7.0251   -8.6663   16.3433 C   0  0  0  0  0  0  0  0  0  0  0  0
   10.8816   -4.0918   19.3362 C   0  0  0  0  0  0  0  0  0  0  0  0
   10.6875   -4.2457   20.8269 C   0  0  0  0  0  0  0  0  0  0  0  0
   10.5168   -5.0695   19.7884 C   0  0  0  0  0  0  0  0  0  0  0  0
    5.5944   -8.6223   17.8610 C   0  0  0  0  0  0  0  0  0  0  0  0
    8.4147   -7.1518   17.0219 C   0  0  0  0  0  0  0  0  0  0  0  0
    7.9831   -6.2295   15.8844 C   0  0  0  0  0  0  0  0  0  0  0  0
    5.6829   -8.4411   16.5737 C   0  0  0  0  0  0  0  0  0  0  0  0
    8.1691   -8.2197   17.1507 C   0  0  0  0  0  0  0  0  0  0  0  0
    5.7337   -8.5342   17.7643 C   0  0  0  0  0  0  0  0  0  0  0  0
    3.8111   -8.6775   16.6587 C   0  0  0  0  0  0  0  0  0  0  0  0
   11.2521   -3.8112   16.4900 C   0  0  0  0  0  0  0  0  0  0  0  0
    4.3630   -8.7404   15.7710 C   0  0  0  0  0  0  0  0  0  0  0  0
   11.1144   -4.0499   18.3791 C   0  0  0  0  0  0  0  0  0  0  0  0
   10.1123   -4.5686   16.3934 C   0  0  0  0  0  0  0  0  0  0  0  0
    3.4459   -9.1154   17.2487 C   0  0  0  0  0  0  0  0  0  0  0  0
    9.3874   -6.7531   16.6988 C   0  0  0  0  0  0  0  0  0  0  0  0
    2.9809   -8.9914   16.6172 C   0  0  0  0  0  0  0  0  0  0  0  0
   11.8695   -3.5558   16.6878 C   0  0  0  0  0  0  0  0  0  0  0  0
    8.1954   -5.5016   16.6695 C   0  0  0  0  0  0  0  0  0  0  0  0
    7.4309   -6.9408   17.1775 C   0  0  0  0  0  0  0  0  0  0  0  0
  2 24  2  0
  4 23  4  0
  9 14  4  0
 16 19  4  0
 16 23  4  0
M  END
$$$$

 Created by Python create_sdf_string function

 25 18  0  0  0  0  0  0  0  0999 V2000
   10.4784   -5.2262   19.4008 N   0  0  0  0  0  0  0  0  0  0  0  0
    7.5953   -3.7195   17.2221 O   0  0  0  0  0  0  0  0  0  0  0  0
   13.4099   -3.9677   18.3117 S   0  0  0  0  0  0  0  0  0  0  0  0
    9.1004   -3.1124   20.7904 C   0  0  0  0  0  0  0  0  0  0  0  0
   10.7786   -4.8979   20.0142 N   0  0  0  0  0  0  0  0  0  0  0  0
    6.1430   -8.4503   17.3457 C   0  0  0  0  0  0  0  0  0  0  0  0
    7.6125   -7.0823   18.0205 F   0  0  0  0  0  0  0  0  0  0  0  0
    7.7371   -7.2691   15.7624 C   0  0  0  0  0  0  0  0  0  0  0  0
   11.5818   -3.4231   18.5241 O   0  0  0  0  0  0  0  0  0  0  0  0
    3.9971   -8.6362   17.7073 C   0  0  0  0  0  0  0  0  0  0  0  0
   12.0036   -2.9550   17.1093 C   0  0  0  0  0  0  0  0  0  0  0  0
    8.6779   -5.6551   16.8156 C   0  0  0  0  0  0  0  0  0  0  0  0
   10.4994   -6.8127   19.3988 He  0  0  0  0  0  0  0  0  0  0  0  0
    7.4698   -9.8185   16.0364 He  0  0  0  0  0  0  0  0  0  0  0  0
   11.3534   -3.9785   20.2237 He  0  0  0  0  0  0  0  0  0  0  0  0
    5.1256   -7.4535   17.3848 He  0  0  0  0  0  0  0  0  0  0  0  0
    8.4105   -6.5439   16.8573 He  0  0  0  0  0  0  0  0  0  0  0  0
    7.1371   -8.4716   17.3131 He  0  0  0  0  0  0  0  0  0  0  0  0
    3.4846   -9.3357   16.0232 He  0  0  0  0  0  0  0  0  0  0  0  0
   11.0148   -4.5199   16.6043 He  0  0  0  0  0  0  0  0  0  0  0  0
    4.0764  -10.8563   16.5207 He  0  0  0  0  0  0  0  0  0  0  0  0
   10.9572   -4.2544   16.1325 He  0  0  0  0  0  0  0  0  0  0  0  0
    8.8120   -6.3566   17.2514 He  0  0  0  0  0  0  0  0  0  0  0  0
    4.7453   -8.2011   17.1874 He  0  0  0  0  0  0  0  0  0  0  0  0
    9.6002   -6.6412   17.5589 He  0  0  0  0  0  0  0  0  0  0  0  0
  1  6  4  0
  1  8  2  0
  2  7  3  0
  3  4  4  0
  3  8  2  0
  3 11  3  0
  4  6  2  0
  4  9  1  0
  4 12  4  0
  5 11  3  0
  5 12  3  0
  6  7  4  0
  6 10  2  0
  6 11  1  0
  6 12  4  0
  7  8  1  0
  9 10  4  0
 11 12  3  0
M  END
$$$$

 Created by Python create_sdf_string function

 25 11  0  0  0  0  0  0  0  0999 V2000
   10.3825   -5.3988   18.7647 C   0  0  0  0  0  0  0  0  0  0  0  0
    8.5559   -4.0250   15.9618 O   0  0  0  0  0  0  0  0  0  0  0  0
   10.2975   -6.2321   19.2984 C   0  0  0  0  0  0  0  0  0  0  0  0
   12.2497   -3.7843   18.1341 C   0  0  0  0  0  0  0  0  0  0  0  0
    7.5028   -9.0602   15.9444 O   0  0  0  0  0  0  0  0  0  0  0  0
   11.2489   -4.2551   20.0504 C   0  0  0  0  0  0  0  0  0  0  0  0
   10.1387   -3.9830   20.6594 C   0  0  0  0  0  0  0  0  0  0  0  0
   10.7392   -4.6847   20.3821 C   0  0  0  0  0  0  0  0  0  0  0  0
    5.9251   -8.5086   17.0625 C   0  0  0  0  0  0  0  0  0  0  0  0
    7.7681   -7.4020   17.6135 C   0  0  0  0  0  0  0  0  0  0  0  0
    7.8914   -7.5161   16.0283 C   0  0  0  0  0  0  0  0  0  0  0  0
    5.0627   -7.9300   17.1451 C   0  0  0  0  0  0  0  0  0  0  0  0
    8.4047   -6.5798   16.7468 C   0  0  0  0  0  0  0  0  0  0  0  0
    6.9159   -8.2058   16.8939 C   0  0  0  0  0  0  0  0  0  0  0  0
    3.3800   -9.3121   16.7856 C   0  0  0  0  0  0  0  0  0  0  0  0
   10.3828   -4.4852   17.0910 C   0  0  0  0  0  0  0  0  0  0  0  0
    4.6757   -9.7616   16.8577 C   0  0  0  0  0  0  0  0  0  0  0  0
   11.2122   -3.6547   18.7192 C   0  0  0  0  0  0  0  0  0  0  0  0
   10.9514   -3.8676   16.2924 C   0  0  0  0  0  0  0  0  0  0  0  0
    3.5816   -8.7827   16.9120 C   0  0  0  0  0  0  0  0  0  0  0  0
    8.9321   -6.3230   17.2250 C   0  0  0  0  0  0  0  0  0  0  0  0
    4.4864   -8.0862   17.0753 C   0  0  0  0  0  0  0  0  0  0  0  0
   11.5215   -3.4951   17.0035 C   0  0  0  0  0  0  0  0  0  0  0  0
    9.2314   -4.9827   16.5781 C   0  0  0  0  0  0  0  0  0  0  0  0
    9.4412   -6.7231   17.8705 C   0  0  0  0  0  0  0  0  0  0  0  0
  1  3  1  0
  2 24  2  0
  6  8  1  0
  7  8  1  0
  9 14  4  0
 12 22  4  0
 15 17  4  0
 15 20  4  0
 16 24  1  0
 19 23  1  0
 20 22  4  0
M  END
$$$$

 Created by Python create_sdf_string function

 25 57  0  0  0  0  0  0  0  0999 V2000
   11.5538   -6.9649   18.2688 N   0  0  0  0  0  0  0  0  0  0  0  0
    9.0719   -4.1990   15.9681 C   0  0  0  0  0  0  0  0  0  0  0  0
    8.8160   -6.0995   18.5370 C   0  0  0  0  0  0  0  0  0  0  0  0
    8.1352   -9.4251   16.1212 O   0  0  0  0  0  0  0  0  0  0  0  0
   10.4901   -5.0362   20.8350 C   0  0  0  0  0  0  0  0  0  0  0  0
    8.9989   -3.8134   20.0325 C   0  0  0  0  0  0  0  0  0  0  0  0
    5.8572   -7.1749   17.5124 I   0  0  0  0  0  0  0  0  0  0  0  0
    8.7165   -7.1523   17.0614 O   0  0  0  0  0  0  0  0  0  0  0  0
    7.1446   -7.3289   17.3876 N   0  0  0  0  0  0  0  0  0  0  0  0
   10.5255   -4.4936   17.7002 C   0  0  0  0  0  0  0  0  0  0  0  0
   11.5462   -4.7761   19.2601 C   0  0  0  0  0  0  0  0  0  0  0  0
   12.8661   -4.7994   16.3252 N   0  0  0  0  0  0  0  0  0  0  0  0
    4.2284   -9.4507   16.1428 C   0  0  0  0  0  0  0  0  0  0  0  0
    8.7408   -5.3253   17.9577 Cl  0  0  0  0  0  0  0  0  0  0  0  0
    3.9468   -7.6565   17.5351 C   0  0  0  0  0  0  0  0  0  0  0  0
   11.0398   -4.0861   15.2505 F   0  0  0  0  0  0  0  0  0  0  0  0
    8.6101   -5.3784   16.6710 N   0  0  0  0  0  0  0  0  0  0  0  0
    8.8387   -6.6323   18.0398 O   0  0  0  0  0  0  0  0  0  0  0  0
   13.2528   -4.9092   18.6017 He  0  0  0  0  0  0  0  0  0  0  0  0
   10.0607   -2.7732   19.8517 He  0  0  0  0  0  0  0  0  0  0  0  0
    5.7536   -9.8616   17.1020 He  0  0  0  0  0  0  0  0  0  0  0  0
    3.0241   -7.8487   16.7245 He  0  0  0  0  0  0  0  0  0  0  0  0
    7.5899   -6.3443   15.2296 He  0  0  0  0  0  0  0  0  0  0  0  0
    3.6395  -10.4074   17.3184 He  0  0  0  0  0  0  0  0  0  0  0  0
    4.3146   -9.6233   15.1306 He  0  0  0  0  0  0  0  0  0  0  0  0
  1  2  3  0
  1  6  3  0
  1  7  2  0
  1  8  1  0
  1  9  3  0
  1 10  2  0
  1 12  1  0
  1 15  4  0
  1 18  4  0
  2  5  4  0
  2  7  1  0
  2  8  1  0
  2 14  1  0
  2 15  3  0
  3  4  4  0
  3  7  3  0
  3 10  2  0
  3 13  2  0
  4  5  1  0
  4  6  3  0
  4  7  2  0
  4  8  4  0
  4 11  1  0
  4 14  1  0
  5  9  1  0
  5 14  2  0
  5 17  3  0
  6 13  3  0
  6 16  2  0
  7  8  2  0
  7  9  2  0
  7 16  4  0
  7 17  2  0
  7 18  3  0
  8 10  4  0
  8 12  1  0
  8 13  1  0
  8 16  4  0
  8 17  1  0
  9 12  3  0
  9 17  3  0
 10 12  3  0
 10 14  3  0
 10 17  1  0
 10 18  2  0
 11 12  3  0
 11 13  3  0
 11 15  1  0
 11 16  3  0
 12 13  3  0
 12 15  4  0
 12 16  1  0
 12 17  3  0
 13 14  2  0
 14 15  4  0
 14 18  2  0
 17 18  1  0
M  END
$$$$

 Created by Python create_sdf_string function

 25  8  0  0  0  0  0  0  0  0999 V2000
   10.8630   -6.4052   18.4358 C   0  0  0  0  0  0  0  0  0  0  0  0
    9.4450   -4.3639   16.1767 C   0  0  0  0  0  0  0  0  0  0  0  0
    9.3384   -5.8611   18.2234 C   0  0  0  0  0  0  0  0  0  0  0  0
   12.5051   -4.8916   17.9772 C   0  0  0  0  0  0  0  0  0  0  0  0
    8.0566   -8.5210   16.1283 O   0  0  0  0  0  0  0  0  0  0  0  0
   10.7953   -4.5690   20.7505 C   0  0  0  0  0  0  0  0  0  0  0  0
    9.8746   -4.2772   20.0224 C   0  0  0  0  0  0  0  0  0  0  0  0
   10.4950   -3.8422   19.7968 C   0  0  0  0  0  0  0  0  0  0  0  0
    5.8492   -9.2958   17.0616 C   0  0  0  0  0  0  0  0  0  0  0  0
    6.3329   -7.9707   17.1336 C   0  0  0  0  0  0  0  0  0  0  0  0
    8.4040   -7.5338   16.9287 C   0  0  0  0  0  0  0  0  0  0  0  0
    3.4573   -8.1682   16.6112 C   0  0  0  0  0  0  0  0  0  0  0  0
    7.6578   -6.2807   15.7996 C   0  0  0  0  0  0  0  0  0  0  0  0
    7.0689   -7.3662   17.3569 C   0  0  0  0  0  0  0  0  0  0  0  0
    3.8739   -9.8602   17.2764 C   0  0  0  0  0  0  0  0  0  0  0  0
   10.4851   -4.3806   17.7003 C   0  0  0  0  0  0  0  0  0  0  0  0
    4.3008   -9.0894   16.1198 C   0  0  0  0  0  0  0  0  0  0  0  0
   11.8871   -5.0823   19.1113 C   0  0  0  0  0  0  0  0  0  0  0  0
   11.8621   -4.1907   16.7967 C   0  0  0  0  0  0  0  0  0  0  0  0
    4.0949   -9.3412   16.7471 C   0  0  0  0  0  0  0  0  0  0  0  0
    9.3811   -5.3656   17.7849 C   0  0  0  0  0  0  0  0  0  0  0  0
    4.2151   -7.9783   16.8654 C   0  0  0  0  0  0  0  0  0  0  0  0
   11.3423   -3.7874   15.8899 C   0  0  0  0  0  0  0  0  0  0  0  0
    8.7704   -5.5836   16.6804 C   0  0  0  0  0  0  0  0  0  0  0  0
    8.8873   -6.9117   17.9352 C   0  0  0  0  0  0  0  0  0  0  0  0
  4 18  4  0
  4 19  4  0
  7  8  1  0
  9 10  4  0
 10 14  1  0
 12 22  4  0
 15 20  4  0
 19 23  1  0
M  END
$$$$

 Created by Python create_sdf_string function

 25 48  0  0  0  0  0  0  0  0999 V2000
    9.8610   -6.2871   18.0277 B   0  0  0  0  0  0  0  0  0  0  0  0
    9.9135   -4.2277   16.4068 Br  0  0  0  0  0  0  0  0  0  0  0  0
    8.9514   -4.3034   19.3186 C   0  0  0  0  0  0  0  0  0  0  0  0
   13.6380   -3.4448   18.0215 P   0  0  0  0  0  0  0  0  0  0  0  0
    9.6864   -8.5323   15.7643 C   0  0  0  0  0  0  0  0  0  0  0  0
    9.7410   -5.5960   21.0740 Cl  0  0  0  0  0  0  0  0  0  0  0  0
   12.5103   -5.0381   20.3243 F   0  0  0  0  0  0  0  0  0  0  0  0
    6.3462   -8.2692   17.8493 O   0  0  0  0  0  0  0  0  0  0  0  0
    4.4549   -7.2209   17.4318 C   0  0  0  0  0  0  0  0  0  0  0  0
    7.1306   -5.8580   17.3496 N   0  0  0  0  0  0  0  0  0  0  0  0
    4.1080  -10.2318   18.7994 N   0  0  0  0  0  0  0  0  0  0  0  0
   11.8296   -4.7094   21.4095 S   0  0  0  0  0  0  0  0  0  0  0  0
   11.1879   -5.7836   16.6036 C   0  0  0  0  0  0  0  0  0  0  0  0
    5.8673  -10.0752   17.6693 O   0  0  0  0  0  0  0  0  0  0  0  0
   11.1550   -4.8203   15.5459 O   0  0  0  0  0  0  0  0  0  0  0  0
    8.8617   -6.8853   16.3959 C   0  0  0  0  0  0  0  0  0  0  0  0
    8.0452   -4.2296   20.8674 He  0  0  0  0  0  0  0  0  0  0  0  0
    6.3624   -8.6146   16.7668 He  0  0  0  0  0  0  0  0  0  0  0  0
    8.7529   -7.3488   17.6724 He  0  0  0  0  0  0  0  0  0  0  0  0
    7.0464   -7.5605   16.5486 He  0  0  0  0  0  0  0  0  0  0  0  0
   10.8622   -5.9745   18.4769 He  0  0  0  0  0  0  0  0  0  0  0  0
    4.1487   -7.7707   15.1073 He  0  0  0  0  0  0  0  0  0  0  0  0
    9.5453   -4.8693   17.8076 He  0  0  0  0  0  0  0  0  0  0  0  0
    5.3512   -9.1275   15.9460 He  0  0  0  0  0  0  0  0  0  0  0  0
    8.0964   -7.3143   18.2348 He  0  0  0  0  0  0  0  0  0  0  0  0
  1  2  2  0
  1  5  2  0
  1  6  2  0
  1  8  4  0
  1 11  3  0
  1 15  3  0
  2  3  3  0
  2  6  2  0
  2  7  3  0
  2 11  2  0
  2 14  1  0
  3  4  3  0
  3  5  2  0
  3  6  4  0
  3  8  2  0
  3 11  1  0
  3 14  2  0
  3 16  2  0
  4  7  4  0
  4  9  4  0
  4 12  2  0
  4 13  4  0
  4 14  2  0
  4 15  3  0
  5  7  1  0
  5  8  1  0
  5 11  1  0
  5 15  2  0
  6 11  1  0
  6 13  1  0
  6 14  2  0
  6 15  2  0
  7  9  2  0
  7 10  1  0
  7 12  2  0
  7 14  4  0
  7 16  2  0
  8 10  1  0
  8 11  3  0
  8 13  3  0
  8 14  3  0
  8 15  2  0
  9 11  3  0
  9 14  1  0
  9 15  4  0
 10 11  3  0
 10 12  2  0
 10 14  2  0
M  END
$$$$

 Created by Python create_sdf_string function

 25  7  0  0  0  0  0  0  0  0999 V2000
    9.7478   -6.1539   17.9494 C   0  0  0  0  0  0  0  0  0  0  0  0
    9.7169   -4.2218   16.3736 C   0  0  0  0  0  0  0  0  0  0  0  0
   10.0441   -4.6656   19.5101 C   0  0  0  0  0  0  0  0  0  0  0  0
   12.3432   -4.5913   17.7651 C   0  0  0  0  0  0  0  0  0  0  0  0
    8.5456   -8.1652   15.9551 C   0  0  0  0  0  0  0  0  0  0  0  0
   10.6743   -4.5875   20.7507 C   0  0  0  0  0  0  0  0  0  0  0  0
    9.4801   -4.2314   20.2085 C   0  0  0  0  0  0  0  0  0  0  0  0
   12.1693   -4.9887   20.0622 C   0  0  0  0  0  0  0  0  0  0  0  0
    5.8852   -8.6058   16.7149 C   0  0  0  0  0  0  0  0  0  0  0  0
    6.4958   -8.1562   17.7170 C   0  0  0  0  0  0  0  0  0  0  0  0
    8.9702   -7.3952   17.7206 C   0  0  0  0  0  0  0  0  0  0  0  0
    4.7106   -8.0744   17.0897 C   0  0  0  0  0  0  0  0  0  0  0  0
    7.5516   -6.4101   17.1050 C   0  0  0  0  0  0  0  0  0  0  0  0
    7.1396   -7.7636   16.5352 C   0  0  0  0  0  0  0  0  0  0  0  0
    4.6550   -9.6819   18.1012 O   0  0  0  0  0  0  0  0  0  0  0  0
   10.7945   -5.4664   18.6082 C   0  0  0  0  0  0  0  0  0  0  0  0
    4.4132   -8.3030   15.8132 C   0  0  0  0  0  0  0  0  0  0  0  0
   11.9082   -4.6193   21.1579 C   0  0  0  0  0  0  0  0  0  0  0  0
   11.2087   -4.7636   17.2203 C   0  0  0  0  0  0  0  0  0  0  0  0
    5.6546   -9.4031   17.7801 C   0  0  0  0  0  0  0  0  0  0  0  0
    9.9532   -4.9295   17.4857 C   0  0  0  0  0  0  0  0  0  0  0  0
    5.2219   -8.7339   16.0848 C   0  0  0  0  0  0  0  0  0  0  0  0
   11.1149   -4.1493   16.0632 C   0  0  0  0  0  0  0  0  0  0  0  0
    8.5385   -7.1271   16.2634 C   0  0  0  0  0  0  0  0  0  0  0  0
    8.0164   -7.6260   17.8923 C   0  0  0  0  0  0  0  0  0  0  0  0
  3  6  4  0
  3  7  4  0
  4 19  4  0
  5 24  1  0
  6 18  4  0
  8 18  4  0
 15 20  1  0
M  END
$$$$

 Created by Python create_sdf_string function

 25 24  0  0  0  0  0  0  0  0999 V2000
    9.6010   -6.2688   18.8921 S   0  0  0  0  0  0  0  0  0  0  0  0
   12.5745   -4.1896   17.1653 C   0  0  0  0  0  0  0  0  0  0  0  0
    9.1667   -4.1073   21.5877 F   0  0  0  0  0  0  0  0  0  0  0  0
   12.7000   -4.7878   20.7235 F   0  0  0  0  0  0  0  0  0  0  0  0
    8.0767   -7.9390   18.0979 C   0  0  0  0  0  0  0  0  0  0  0  0
    5.4133   -6.3895   16.1416 Se  0  0  0  0  0  0  0  0  0  0  0  0
    7.7237   -6.5315   17.2814 C   0  0  0  0  0  0  0  0  0  0  0  0
    4.3985   -7.9772   15.6900 C   0  0  0  0  0  0  0  0  0  0  0  0
    9.0248   -4.6267   18.0882 S   0  0  0  0  0  0  0  0  0  0  0  0
    4.4605   -7.6791   15.2616 O   0  0  0  0  0  0  0  0  0  0  0  0
   11.8333   -4.6429   15.0885 N   0  0  0  0  0  0  0  0  0  0  0  0
    6.1467   -7.4618   15.0012 C   0  0  0  0  0  0  0  0  0  0  0  0
    7.8829   -3.8253   14.6464 He  0  0  0  0  0  0  0  0  0  0  0  0
   10.0210   -4.6306   20.7735 He  0  0  0  0  0  0  0  0  0  0  0  0
    8.3772   -7.5029   17.2458 He  0  0  0  0  0  0  0  0  0  0  0  0
    9.8795   -4.7209   19.2426 He  0  0  0  0  0  0  0  0  0  0  0  0
    6.6861   -7.3873   16.9668 He  0  0  0  0  0  0  0  0  0  0  0  0
    6.1798   -7.7746   17.5520 He  0  0  0  0  0  0  0  0  0  0  0  0
    7.4231   -6.2133   15.3350 He  0  0  0  0  0  0  0  0  0  0  0  0
    5.9183  -10.4584   15.8657 He  0  0  0  0  0  0  0  0  0  0  0  0
   11.2903   -4.1485   18.4489 He  0  0  0  0  0  0  0  0  0  0  0  0
   12.6172   -5.1877   21.0714 He  0  0  0  0  0  0  0  0  0  0  0  0
   11.4580   -3.8662   18.3447 He  0  0  0  0  0  0  0  0  0  0  0  0
    4.9339   -7.9933   17.2973 He  0  0  0  0  0  0  0  0  0  0  0  0
    8.6145   -6.7757   16.9600 He  0  0  0  0  0  0  0  0  0  0  0  0
  1  4  4  0
  1  6  2  0
  1  7  1  0
  2  3  3  0
  2  4  2  0
  2  5  4  0
  2  6  3  0
  2  9  2  0
  3  5  4  0
  3  6  3  0
  3  8  3  0
  3 12  1  0
  4  6  2  0
  4  7  3  0
  5  7  3  0
  5  8  4  0
  6 10  1  0
  7  8  4  0
  7  9  4  0
  7 11  1  0
  8  9  1  0
  8 10  4  0
  8 11  1  0
  9 11  1  0
M  END
$$$$

 Created by Python create_sdf_string function

 25 11  0  0  0  0  0  0  0  0999 V2000
    9.6947   -6.3094   18.6384 C   0  0  0  0  0  0  0  0  0  0  0  0
    8.7154   -4.6318   15.7305 C   0  0  0  0  0  0  0  0  0  0  0  0
   10.5339   -4.4568   20.6095 C   0  0  0  0  0  0  0  0  0  0  0  0
   11.6600   -4.1481   17.1603 C   0  0  0  0  0  0  0  0  0  0  0  0
    8.3338   -7.6493   17.0553 C   0  0  0  0  0  0  0  0  0  0  0  0
   10.2763   -4.6899   19.4508 C   0  0  0  0  0  0  0  0  0  0  0  0
   10.3041   -4.0569   21.3013 O   0  0  0  0  0  0  0  0  0  0  0  0
   12.3479   -4.6816   20.6333 C   0  0  0  0  0  0  0  0  0  0  0  0
    6.6480   -7.7407   17.0948 C   0  0  0  0  0  0  0  0  0  0  0  0
    6.3299   -7.9456   17.4185 C   0  0  0  0  0  0  0  0  0  0  0  0
    8.2579   -8.0442   17.8121 C   0  0  0  0  0  0  0  0  0  0  0  0
    5.3274   -7.2380   15.6073 C   0  0  0  0  0  0  0  0  0  0  0  0
    8.3987   -6.5855   17.5676 C   0  0  0  0  0  0  0  0  0  0  0  0
    7.4416   -6.3025   15.6795 C   0  0  0  0  0  0  0  0  0  0  0  0
    6.0138   -9.6318   16.4361 O   0  0  0  0  0  0  0  0  0  0  0  0
   11.3316   -4.4664   18.3240 C   0  0  0  0  0  0  0  0  0  0  0  0
    4.3907   -8.3941   16.2577 C   0  0  0  0  0  0  0  0  0  0  0  0
   12.0980   -4.6663   20.7682 C   0  0  0  0  0  0  0  0  0  0  0  0
   11.3445   -4.3351   18.0517 C   0  0  0  0  0  0  0  0  0  0  0  0
    5.2330   -8.5680   17.1266 C   0  0  0  0  0  0  0  0  0  0  0  0
    9.7612   -5.1105   17.6466 C   0  0  0  0  0  0  0  0  0  0  0  0
    4.4092   -7.9924   15.7916 O   0  0  0  0  0  0  0  0  0  0  0  0
   10.7332   -3.9581   16.0209 C   0  0  0  0  0  0  0  0  0  0  0  0
    6.4183   -7.3078   15.6542 C   0  0  0  0  0  0  0  0  0  0  0  0
    8.8209   -6.2202   17.0145 C   0  0  0  0  0  0  0  0  0  0  0  0
  3  7  1  0
  5 11  1  0
  8 18  4  0
  9 10  1  0
 12 22  1  0
 12 24  1  0
 14 24  1  0
 15 20  1  0
 16 19  4  0
 17 20  1  0
 17 22  1  0
M  END
$$$$

 Created by Python create_sdf_string function

 25 32  0  0  0  0  0  0  0  0999 V2000
   10.3207   -5.2080   21.6097 O   0  0  0  0  0  0  0  0  0  0  0  0
   11.5633   -4.6247   17.1122 N   0  0  0  0  0  0  0  0  0  0  0  0
    8.4244   -6.9472   17.6574 N   0  0  0  0  0  0  0  0  0  0  0  0
   12.3171   -4.8943   21.6521 Cl  0  0  0  0  0  0  0  0  0  0  0  0
    7.2550   -7.3287   16.5872 P   0  0  0  0  0  0  0  0  0  0  0  0
    6.6691   -7.0220   18.4623 O   0  0  0  0  0  0  0  0  0  0  0  0
    8.9884   -8.1956   18.7814 Se  0  0  0  0  0  0  0  0  0  0  0  0
    4.8602   -6.5869   16.0926 C   0  0  0  0  0  0  0  0  0  0  0  0
    9.1458   -6.2571   16.8709 N   0  0  0  0  0  0  0  0  0  0  0  0
   13.0307   -4.7354   20.8746 Cl  0  0  0  0  0  0  0  0  0  0  0  0
    4.4269   -7.9512   16.8115 C   0  0  0  0  0  0  0  0  0  0  0  0
   10.0798   -4.2795   17.5350 C   0  0  0  0  0  0  0  0  0  0  0  0
    4.2606   -9.2262   16.5134 S   0  0  0  0  0  0  0  0  0  0  0  0
    9.6400   -6.9841   16.7140 N   0  0  0  0  0  0  0  0  0  0  0  0
    8.9231   -8.3277   18.8262 He  0  0  0  0  0  0  0  0  0  0  0  0
    8.0434   -4.5731   16.7232 He  0  0  0  0  0  0  0  0  0  0  0  0
    8.6424   -5.0387   19.5197 He  0  0  0  0  0  0  0  0  0  0  0  0
   10.1297   -4.4252   20.1161 He  0  0  0  0  0  0  0  0  0  0  0  0
    7.6759   -7.0008   16.9022 He  0  0  0  0  0  0  0  0  0  0  0  0
    3.8818   -9.2477   14.9064 He  0  0  0  0  0  0  0  0  0  0  0  0
   13.6968   -3.9101   17.1006 He  0  0  0  0  0  0  0  0  0  0  0  0
    6.2603   -7.8870   16.0713 He  0  0  0  0  0  0  0  0  0  0  0  0
   12.5345   -4.5104   18.7844 He  0  0  0  0  0  0  0  0  0  0  0  0
   11.6571   -3.2971   15.4740 He  0  0  0  0  0  0  0  0  0  0  0  0
    7.1372   -7.3951   16.6228 He  0  0  0  0  0  0  0  0  0  0  0  0
  1  2  1  0
  1  3  2  0
  1  6  1  0
  1 12  2  0
  1 13  4  0
  2  4  1  0
  2  5  2  0
  2 11  2  0
  2 13  1  0
  2 14  4  0
  3  4  3  0
  3  7  1  0
  3 13  1  0
  4  5  4  0
  4 12  2  0
  5  6  2  0
  5 10  4  0
  5 13  2  0
  5 14  2  0
  6 11  4  0
  6 13  3  0
  7  9  1  0
  7 10  1  0
  7 12  1  0
  8  9  4  0
  8 11  1  0
  8 13  1  0
  9 13  4  0
 10 14  3  0
 11 12  2  0
 11 13  1  0
 11 14  1  0
M  END
$$$$

 Created by Python create_sdf_string function

 25 10  0  0  0  0  0  0  0  0999 V2000
    9.1185   -8.0345   18.4320 C   0  0  0  0  0  0  0  0  0  0  0  0
    8.9312   -4.6465   16.2232 C   0  0  0  0  0  0  0  0  0  0  0  0
   10.7904   -4.6827   21.2010 C   0  0  0  0  0  0  0  0  0  0  0  0
   11.4436   -4.2357   17.0334 C   0  0  0  0  0  0  0  0  0  0  0  0
    8.9360   -6.6547   17.6140 C   0  0  0  0  0  0  0  0  0  0  0  0
    9.9315   -4.9769   19.4434 C   0  0  0  0  0  0  0  0  0  0  0  0
   10.7026   -4.6315   19.9962 C   0  0  0  0  0  0  0  0  0  0  0  0
   12.3147   -4.6015   21.2796 C   0  0  0  0  0  0  0  0  0  0  0  0
    7.3392   -7.3793   16.6346 C   0  0  0  0  0  0  0  0  0  0  0  0
    6.2392   -7.4878   17.9859 C   0  0  0  0  0  0  0  0  0  0  0  0
    9.1854   -7.7343   18.2648 C   0  0  0  0  0  0  0  0  0  0  0  0
    5.0703   -7.4961   15.8903 C   0  0  0  0  0  0  0  0  0  0  0  0
    9.4721   -5.8169   17.3281 C   0  0  0  0  0  0  0  0  0  0  0  0
    7.7037   -6.9964   16.5282 C   0  0  0  0  0  0  0  0  0  0  0  0
    3.8599   -8.9329   15.4579 O   0  0  0  0  0  0  0  0  0  0  0  0
   12.3599   -4.0956   16.9567 C   0  0  0  0  0  0  0  0  0  0  0  0
    6.0932   -8.3387   15.8593 C   0  0  0  0  0  0  0  0  0  0  0  0
   12.3995   -4.6733   20.9764 C   0  0  0  0  0  0  0  0  0  0  0  0
   11.8401   -4.5857   18.9842 C   0  0  0  0  0  0  0  0  0  0  0  0
    4.6846   -8.1224   16.8592 C   0  0  0  0  0  0  0  0  0  0  0  0
   10.2032   -4.6274   17.3964 C   0  0  0  0  0  0  0  0  0  0  0  0
    4.0957   -8.5726   16.3112 C   0  0  0  0  0  0  0  0  0  0  0  0
   11.3034   -3.8107   15.9967 C   0  0  0  0  0  0  0  0  0  0  0  0
    6.9154   -7.8466   16.2207 C   0  0  0  0  0  0  0  0  0  0  0  0
    9.4687   -6.4000   17.2022 C   0  0  0  0  0  0  0  0  0  0  0  0
  1 11  1  0
  4 23  4  0
  5 11  1  0
  6  7  4  0
  8 18  4  0
  9 14  1  0
 12 20  1  0
 15 22  1  0
 17 24  1  0
 20 22  1  0
M  END
$$$$

 Created by Python create_sdf_string function

 25 60  0  0  0  0  0  0  0  0999 V2000
    8.6938   -8.2008   18.7193 N   0  0  0  0  0  0  0  0  0  0  0  0
    8.1191   -4.1049   17.5591 O   0  0  0  0  0  0  0  0  0  0  0  0
   11.4265   -4.9858   17.3324 P   0  0  0  0  0  0  0  0  0  0  0  0
    7.5180   -6.1576   19.2080 O   0  0  0  0  0  0  0  0  0  0  0  0
    9.2212   -6.3606   20.9543 O   0  0  0  0  0  0  0  0  0  0  0  0
   13.0996   -4.5894   21.9424 S   0  0  0  0  0  0  0  0  0  0  0  0
    6.3721   -7.7244   15.9324 C   0  0  0  0  0  0  0  0  0  0  0  0
    5.2232   -8.3901   17.9935 C   0  0  0  0  0  0  0  0  0  0  0  0
    8.8014   -7.9333   19.3367 C   0  0  0  0  0  0  0  0  0  0  0  0
   10.1472   -6.1871   17.9951 N   0  0  0  0  0  0  0  0  0  0  0  0
    8.3646   -6.0289   15.7006 C   0  0  0  0  0  0  0  0  0  0  0  0
   13.6106   -4.1854   15.7114 N   0  0  0  0  0  0  0  0  0  0  0  0
    4.3125   -9.0999   14.2771 Cl  0  0  0  0  0  0  0  0  0  0  0  0
   13.6745   -5.2144   20.1827 C   0  0  0  0  0  0  0  0  0  0  0  0
   10.8708   -6.0295   19.7561 I   0  0  0  0  0  0  0  0  0  0  0  0
    4.3533   -8.4206   17.1492 C   0  0  0  0  0  0  0  0  0  0  0  0
   10.3487   -3.6281   16.1265 C   0  0  0  0  0  0  0  0  0  0  0  0
    7.3048   -7.4613   16.4940 N   0  0  0  0  0  0  0  0  0  0  0  0
    8.4804   -6.1677   16.4600 I   0  0  0  0  0  0  0  0  0  0  0  0
   11.2949   -4.1896   20.3404 He  0  0  0  0  0  0  0  0  0  0  0  0
   11.3280   -2.6226   19.7590 He  0  0  0  0  0  0  0  0  0  0  0  0
    5.3146   -8.7407   14.9608 He  0  0  0  0  0  0  0  0  0  0  0  0
    2.5780   -8.8904   14.3219 He  0  0  0  0  0  0  0  0  0  0  0  0
    9.2884   -3.3705   17.6339 He  0  0  0  0  0  0  0  0  0  0  0  0
    6.2690   -8.6923   16.0882 He  0  0  0  0  0  0  0  0  0  0  0  0
  1  4  3  0
  1 10  2  0
  1 12  4  0
  1 13  2  0
  1 14  2  0
  1 15  2  0
  1 19  1  0
  2  3  3  0
  2  5  4  0
  2  7  1  0
  2  8  3  0
  2 10  3  0
  2 15  1  0
  2 17  1  0
  3  4  1  0
  3  5  1  0
  3  6  3  0
  3 12  1  0
  3 13  4  0
  3 14  3  0
  3 16  3  0
  3 19  2  0
  4 12  3  0
  4 16  4  0
  5  9  2  0
  5 10  1  0
  5 11  3  0
  5 13  4  0
  5 15  3  0
  5 17  4  0
  5 19  1  0
  6  7  2  0
  6  9  1  0
  6 11  1  0
  6 14  2  0
  6 17  3  0
  6 18  2  0
  7  8  3  0
  7 10  4  0
  7 11  2  0
  7 13  2  0
  7 17  4  0
  8 10  3  0
  8 16  1  0
 10 12  3  0
 10 16  2  0
 11 12  2  0
 11 13  3  0
 11 14  2  0
 11 15  1  0
 11 18  2  0
 12 17  2  0
 12 18  2  0
 13 18  2  0
 14 18  2  0
 15 17  3  0
 15 19  3  0
 16 17  2  0
 16 18  2  0
 16 19  2  0
M  END
$$$$

 Created by Python create_sdf_string function

 25 10  0  0  0  0  0  0  0  0999 V2000
    8.8544   -7.8077   18.0784 C   0  0  0  0  0  0  0  0  0  0  0  0
    9.2854   -4.2174   16.6227 O   0  0  0  0  0  0  0  0  0  0  0  0
   11.5516   -4.4296   20.6322 C   0  0  0  0  0  0  0  0  0  0  0  0
   11.3534   -4.1862   17.5749 C   0  0  0  0  0  0  0  0  0  0  0  0
    8.0697   -6.5127   18.3424 C   0  0  0  0  0  0  0  0  0  0  0  0
   10.3339   -6.0412   19.6857 C   0  0  0  0  0  0  0  0  0  0  0  0
   11.1953   -3.4151   19.3726 C   0  0  0  0  0  0  0  0  0  0  0  0
   12.5593   -4.6521   21.6356 C   0  0  0  0  0  0  0  0  0  0  0  0
    6.3261   -7.8384   15.9548 C   0  0  0  0  0  0  0  0  0  0  0  0
    5.1868   -8.4283   17.4249 C   0  0  0  0  0  0  0  0  0  0  0  0
    9.0852   -7.8247   18.4883 C   0  0  0  0  0  0  0  0  0  0  0  0
    5.2585   -8.4676   15.3876 C   0  0  0  0  0  0  0  0  0  0  0  0
    9.7746   -5.9043   18.1830 N   0  0  0  0  0  0  0  0  0  0  0  0
    8.2386   -6.3891   15.9680 C   0  0  0  0  0  0  0  0  0  0  0  0
    3.0887   -8.9912   15.3309 O   0  0  0  0  0  0  0  0  0  0  0  0
   12.2576   -3.8656   16.4830 C   0  0  0  0  0  0  0  0  0  0  0  0
    4.0225   -8.7900   15.2632 C   0  0  0  0  0  0  0  0  0  0  0  0
   12.5517   -4.9523   20.5990 C   0  0  0  0  0  0  0  0  0  0  0  0
   10.9368   -5.2814   19.5815 C   0  0  0  0  0  0  0  0  0  0  0  0
    4.2088   -8.7086   16.9109 C   0  0  0  0  0  0  0  0  0  0  0  0
   10.3740   -4.0678   17.9654 C   0  0  0  0  0  0  0  0  0  0  0  0
    5.7017   -8.3371   16.1716 C   0  0  0  0  0  0  0  0  0  0  0  0
   10.4931   -3.8672   16.2739 C   0  0  0  0  0  0  0  0  0  0  0  0
    7.4249   -7.4719   16.2005 C   0  0  0  0  0  0  0  0  0  0  0  0
    8.5605   -6.3466   16.6328 C   0  0  0  0  0  0  0  0  0  0  0  0
  1 11  1  0
  2 23  1  0
  4 16  1  0
  4 21  4  0
  8 18  4  0
  9 12  4  0
  9 24  1  0
 10 20  4  0
 14 25  1  0
 15 17  1  0
M  END
$$$$

 Created by Python create_sdf_string function

 25 40  0  0  0  0  0  0  0  0999 V2000
    8.3036   -7.4370   18.8495 B   0  0  0  0  0  0  0  0  0  0  0  0
   10.7277   -4.8014   16.5676 N   0  0  0  0  0  0  0  0  0  0  0  0
   10.7678   -4.6220   19.7140 C   0  0  0  0  0  0  0  0  0  0  0  0
    9.5572   -5.3274   19.1099 C   0  0  0  0  0  0  0  0  0  0  0  0
   12.4212   -3.6915   19.2110 C   0  0  0  0  0  0  0  0  0  0  0  0
   12.8169   -2.8397   21.1665 P   0  0  0  0  0  0  0  0  0  0  0  0
    6.4641   -7.4220   17.0668 C   0  0  0  0  0  0  0  0  0  0  0  0
    5.4974   -7.7304   17.7408 Cl  0  0  0  0  0  0  0  0  0  0  0  0
    3.6127   -8.5885   15.2955 C   0  0  0  0  0  0  0  0  0  0  0  0
   10.6106   -5.6683   20.1124 C   0  0  0  0  0  0  0  0  0  0  0  0
   14.4621   -3.7671   18.2151 C   0  0  0  0  0  0  0  0  0  0  0  0
   11.2442   -5.8437   19.0505 N   0  0  0  0  0  0  0  0  0  0  0  0
    4.8085   -9.5390   17.4631 C   0  0  0  0  0  0  0  0  0  0  0  0
   10.8586   -3.9134   18.0691 C   0  0  0  0  0  0  0  0  0  0  0  0
    5.7076   -8.6813   17.1567 F   0  0  0  0  0  0  0  0  0  0  0  0
    7.6871   -7.1424   16.6678 C   0  0  0  0  0  0  0  0  0  0  0  0
   11.0663   -4.4350   16.8621 He  0  0  0  0  0  0  0  0  0  0  0  0
   10.7335   -4.8756   18.5929 He  0  0  0  0  0  0  0  0  0  0  0  0
    8.2489   -8.5232   18.9705 He  0  0  0  0  0  0  0  0  0  0  0  0
    7.2984   -5.6591   15.9763 He  0  0  0  0  0  0  0  0  0  0  0  0
    3.3995   -8.3472   15.7244 He  0  0  0  0  0  0  0  0  0  0  0  0
    4.2474   -8.1877   14.3754 He  0  0  0  0  0  0  0  0  0  0  0  0
   12.3937   -5.4880   20.0585 He  0  0  0  0  0  0  0  0  0  0  0  0
   11.1079   -4.7690   17.2647 He  0  0  0  0  0  0  0  0  0  0  0  0
    8.4267   -5.7581   16.6852 He  0  0  0  0  0  0  0  0  0  0  0  0
  1  2  2  0
  1  5  1  0
  1  7  1  0
  1 15  3  0
  1 16  3  0
  2  6  4  0
  2  9  4  0
  2 10  3  0
  2 12  2  0
  2 13  4  0
  2 14  3  0
  3  5  1  0
  3 14  3  0
  3 16  2  0
  4  5  3  0
  4  6  3  0
  4  8  1  0
  4 10  1  0
  5  8  3  0
  5  9  4  0
  5 12  3  0
  5 13  2  0
  6 12  1  0
  6 13  3  0
  6 14  2  0
  7 10  1  0
  7 16  1  0
  8 10  4  0
  8 12  1  0
  9 14  1  0
  9 15  4  0
  9 16  4  0
 10 14  2  0
 10 15  4  0
 12 16  4  0
 13 14  4  0
 13 15  4  0
 13 16  1  0
 14 16  2  0
 15 16  3  0
M  END
$$$$

 Created by Python create_sdf_string function

 25 11  0  0  0  0  0  0  0  0999 V2000
    8.5058   -7.2551   17.9754 C   0  0  0  0  0  0  0  0  0  0  0  0
   10.1120   -4.4622   16.4951 N   0  0  0  0  0  0  0  0  0  0  0  0
   10.9620   -4.3183   20.1462 C   0  0  0  0  0  0  0  0  0  0  0  0
   11.0179   -3.9306   16.6789 C   0  0  0  0  0  0  0  0  0  0  0  0
    9.6791   -5.5231   18.8105 C   0  0  0  0  0  0  0  0  0  0  0  0
   11.3362   -4.5619   18.9157 C   0  0  0  0  0  0  0  0  0  0  0  0
   11.9549   -4.0823   19.3738 C   0  0  0  0  0  0  0  0  0  0  0  0
   12.1781   -3.7155   21.5770 C   0  0  0  0  0  0  0  0  0  0  0  0
    6.9660   -7.5709   17.0077 C   0  0  0  0  0  0  0  0  0  0  0  0
    5.8630   -8.1325   17.5975 C   0  0  0  0  0  0  0  0  0  0  0  0
    8.6340   -7.8496   18.2794 C   0  0  0  0  0  0  0  0  0  0  0  0
    3.7717   -8.6329   15.8749 C   0  0  0  0  0  0  0  0  0  0  0  0
   10.8801   -5.2094   19.9229 C   0  0  0  0  0  0  0  0  0  0  0  0
    7.6706   -6.0588   15.9073 C   0  0  0  0  0  0  0  0  0  0  0  0
    3.4849   -8.8652   16.0746 C   0  0  0  0  0  0  0  0  0  0  0  0
   13.3383   -4.2804   18.1088 C   0  0  0  0  0  0  0  0  0  0  0  0
    4.5829   -8.0948   15.4386 C   0  0  0  0  0  0  0  0  0  0  0  0
   12.3151   -4.8816   20.7945 C   0  0  0  0  0  0  0  0  0  0  0  0
   10.7925   -5.7448   18.9667 C   0  0  0  0  0  0  0  0  0  0  0  0
    4.5612   -8.9818   17.3442 C   0  0  0  0  0  0  0  0  0  0  0  0
   10.7215   -4.0275   17.7151 C   0  0  0  0  0  0  0  0  0  0  0  0
    5.3184   -8.3807   16.9476 C   0  0  0  0  0  0  0  0  0  0  0  0
   10.9751   -4.1000   16.9459 C   0  0  0  0  0  0  0  0  0  0  0  0
    7.5890   -7.0013   16.6399 C   0  0  0  0  0  0  0  0  0  0  0  0
    8.6469   -5.7967   16.4988 C   0  0  0  0  0  0  0  0  0  0  0  0
  1 11  1  0
  4 23  1  0
  6  7  4  0
  8 18  4  0
  9 24  1  0
 10 20  4  0
 12 15  4  0
 12 17  4  0
 14 24  4  0
 20 22  4  0
 21 23  1  0
M  END
$$$$

 Created by Python create_sdf_string function

 25 20  0  0  0  0  0  0  0  0999 V2000
    8.8253   -4.0214   19.8280 F   0  0  0  0  0  0  0  0  0  0  0  0
   10.4486   -4.9895   18.4774 C   0  0  0  0  0  0  0  0  0  0  0  0
   11.9726   -3.2030   21.2386 C   0  0  0  0  0  0  0  0  0  0  0  0
    6.8517   -7.2845   15.7826 N   0  0  0  0  0  0  0  0  0  0  0  0
    6.7590   -7.3035   16.1363 P   0  0  0  0  0  0  0  0  0  0  0  0
   11.9932   -5.4029   19.2669 F   0  0  0  0  0  0  0  0  0  0  0  0
    8.1319   -6.8329   15.3145 C   0  0  0  0  0  0  0  0  0  0  0  0
   14.6126   -3.8233   18.1284 O   0  0  0  0  0  0  0  0  0  0  0  0
    5.9400   -7.3853   14.5590 O   0  0  0  0  0  0  0  0  0  0  0  0
   11.2023   -6.8861   19.7004 F   0  0  0  0  0  0  0  0  0  0  0  0
    4.7891   -8.8199   17.5413 C   0  0  0  0  0  0  0  0  0  0  0  0
   11.3461   -3.5736   18.4894 C   0  0  0  0  0  0  0  0  0  0  0  0
    9.0435   -8.8173   18.7858 He  0  0  0  0  0  0  0  0  0  0  0  0
   10.6345   -3.8278   16.5151 He  0  0  0  0  0  0  0  0  0  0  0  0
   11.1998   -5.6029   17.6477 He  0  0  0  0  0  0  0  0  0  0  0  0
   11.3962   -3.8978   19.3054 He  0  0  0  0  0  0  0  0  0  0  0  0
   11.3194   -3.5486   18.8639 He  0  0  0  0  0  0  0  0  0  0  0  0
    8.4342   -8.1702   18.0733 He  0  0  0  0  0  0  0  0  0  0  0  0
    2.9535   -7.4111   16.3944 He  0  0  0  0  0  0  0  0  0  0  0  0
    3.2010   -7.9868   15.6092 He  0  0  0  0  0  0  0  0  0  0  0  0
   11.5721   -5.0558   19.7180 He  0  0  0  0  0  0  0  0  0  0  0  0
    8.5286   -5.1172   17.1191 He  0  0  0  0  0  0  0  0  0  0  0  0
    5.4324  -10.5396   15.7286 He  0  0  0  0  0  0  0  0  0  0  0  0
    8.0019   -6.2331   17.0864 He  0  0  0  0  0  0  0  0  0  0  0  0
    9.1708   -6.5747   16.3227 He  0  0  0  0  0  0  0  0  0  0  0  0
  1  5  3  0
  2  3  2  0
  2  7  4  0
  2  9  1  0
  2 11  2  0
  2 12  4  0
  3  7  3  0
  3 11  1  0
  4  6  3  0
  5  6  1  0
  5  7  4  0
  5  9  2  0
  6 11  3  0
  6 12  3  0
  7  8  2  0
  7  9  2  0
  7 10  1  0
  8  9  3  0
  8 10  3  0
 10 11  3  0
M  END
$$$$

 Created by Python create_sdf_string function

 25 10  0  0  0  0  0  0  0  0999 V2000
    9.3407   -7.8397   18.2948 C   0  0  0  0  0  0  0  0  0  0  0  0
   10.6724   -3.8341   16.4941 C   0  0  0  0  0  0  0  0  0  0  0  0
    9.5077   -4.1835   19.9313 C   0  0  0  0  0  0  0  0  0  0  0  0
   10.3803   -5.4311   17.8090 C   0  0  0  0  0  0  0  0  0  0  0  0
   10.5067   -4.8769   18.5347 C   0  0  0  0  0  0  0  0  0  0  0  0
   10.9262   -4.4986   19.6398 C   0  0  0  0  0  0  0  0  0  0  0  0
   11.2430   -3.4915   18.6746 C   0  0  0  0  0  0  0  0  0  0  0  0
   11.6164   -3.9532   21.2466 C   0  0  0  0  0  0  0  0  0  0  0  0
    6.6313   -7.8162   16.0297 C   0  0  0  0  0  0  0  0  0  0  0  0
    6.6140   -7.4516   16.1985 C   0  0  0  0  0  0  0  0  0  0  0  0
    8.6379   -8.0231   17.8774 C   0  0  0  0  0  0  0  0  0  0  0  0
    3.8194   -8.1617   16.2778 C   0  0  0  0  0  0  0  0  0  0  0  0
   11.9641   -5.2004   19.3824 C   0  0  0  0  0  0  0  0  0  0  0  0
    7.8020   -6.9732   15.7274 C   0  0  0  0  0  0  0  0  0  0  0  0
    3.7063   -8.2969   16.2446 C   0  0  0  0  0  0  0  0  0  0  0  0
   13.0069   -4.5470   17.6607 O   0  0  0  0  0  0  0  0  0  0  0  0
    5.9487   -7.2528   15.3969 C   0  0  0  0  0  0  0  0  0  0  0  0
   11.3494   -4.7080   20.2407 C   0  0  0  0  0  0  0  0  0  0  0  0
   10.6548   -6.5994   19.2435 C   0  0  0  0  0  0  0  0  0  0  0  0
    4.8322   -8.7437   17.1511 C   0  0  0  0  0  0  0  0  0  0  0  0
    9.2122   -5.2545   16.8321 C   0  0  0  0  0  0  0  0  0  0  0  0
    5.5667   -9.3110   16.2505 C   0  0  0  0  0  0  0  0  0  0  0  0
   10.9489   -3.9158   17.8162 C   0  0  0  0  0  0  0  0  0  0  0  0
    8.1349   -6.8022   17.1089 C   0  0  0  0  0  0  0  0  0  0  0  0
    8.8040   -6.6373   16.6390 C   0  0  0  0  0  0  0  0  0  0  0  0
  1 11  1  0
  1 19  1  0
  3  6  1  0
  4 21  1  0
  6 18  1  0
  7 23  1  0
  8 18  1  0
 12 15  4  0
 20 22  4  0
 24 25  1  0
M  END
$$$$

 Created by Python create_sdf_string function

 25 28  0  0  0  0  0  0  0  0999 V2000
   10.7131   -4.0309   16.5065 C   0  0  0  0  0  0  0  0  0  0  0  0
   10.9470   -2.8829   19.4841 C   0  0  0  0  0  0  0  0  0  0  0  0
   11.9311   -3.0218   18.5917 C   0  0  0  0  0  0  0  0  0  0  0  0
    6.3792   -8.9443   15.5222 C   0  0  0  0  0  0  0  0  0  0  0  0
    8.1869   -7.0378   15.5429 C   0  0  0  0  0  0  0  0  0  0  0  0
    9.5617   -8.7110   17.9210 C   0  0  0  0  0  0  0  0  0  0  0  0
    3.9945   -8.1741   16.5213 C   0  0  0  0  0  0  0  0  0  0  0  0
    3.9554   -7.6195   17.3475 O   0  0  0  0  0  0  0  0  0  0  0  0
    6.5358   -6.5180   14.6795 O   0  0  0  0  0  0  0  0  0  0  0  0
   10.9732   -3.9917   20.2760 C   0  0  0  0  0  0  0  0  0  0  0  0
   11.1500   -6.1757   19.1681 C   0  0  0  0  0  0  0  0  0  0  0  0
    4.5207   -9.2692   18.2648 F   0  0  0  0  0  0  0  0  0  0  0  0
    9.2536   -3.9706   17.6881 C   0  0  0  0  0  0  0  0  0  0  0  0
    9.6051   -7.7821   19.3657 He  0  0  0  0  0  0  0  0  0  0  0  0
    8.8765   -5.2892   19.9224 He  0  0  0  0  0  0  0  0  0  0  0  0
   10.4934   -5.5199   17.9449 He  0  0  0  0  0  0  0  0  0  0  0  0
    9.6622   -4.0113   19.6200 He  0  0  0  0  0  0  0  0  0  0  0  0
   11.2479   -2.7367   22.2623 He  0  0  0  0  0  0  0  0  0  0  0  0
   12.6481   -3.5106   19.0687 He  0  0  0  0  0  0  0  0  0  0  0  0
    7.3998   -7.9874   16.5299 He  0  0  0  0  0  0  0  0  0  0  0  0
   13.7786   -4.6086   17.3675 He  0  0  0  0  0  0  0  0  0  0  0  0
    4.0106   -9.9939   16.9964 He  0  0  0  0  0  0  0  0  0  0  0  0
   11.1033   -2.9071   17.8720 He  0  0  0  0  0  0  0  0  0  0  0  0
    8.3742   -6.7505   17.1962 He  0  0  0  0  0  0  0  0  0  0  0  0
    8.3690   -6.5637   17.4246 He  0  0  0  0  0  0  0  0  0  0  0  0
  1  3  1  0
  1  4  4  0
  1  8  1  0
  1 13  2  0
  2  3  2  0
  2  7  4  0
  3  8  4  0
  3 11  2  0
  4  6  2  0
  4  8  4  0
  4 10  4  0
  4 11  2  0
  5  9  1  0
  5 13  4  0
  6  7  1  0
  6 11  1  0
  6 13  4  0
  7  8  4  0
  7 11  4  0
  7 13  2  0
  8 11  3  0
  8 12  4  0
  9 11  2  0
  9 12  1  0
  9 13  1  0
 10 11  4  0
 10 12  2  0
 11 13  4  0
M  END
$$$$

 Created by Python create_sdf_string function

 25 11  0  0  0  0  0  0  0  0999 V2000
    9.8081   -7.6640   18.7164 C   0  0  0  0  0  0  0  0  0  0  0  0
   10.8543   -3.9291   16.2981 C   0  0  0  0  0  0  0  0  0  0  0  0
    9.4475   -5.2426   19.3074 C   0  0  0  0  0  0  0  0  0  0  0  0
   10.1175   -5.7171   18.1239 C   0  0  0  0  0  0  0  0  0  0  0  0
   10.1681   -4.2841   20.0089 C   0  0  0  0  0  0  0  0  0  0  0  0
   11.0865   -3.3323   19.7831 C   0  0  0  0  0  0  0  0  0  0  0  0
   11.5823   -3.4877   18.3281 C   0  0  0  0  0  0  0  0  0  0  0  0
   11.0193   -3.3850   21.8261 O   0  0  0  0  0  0  0  0  0  0  0  0
    6.0139   -8.4703   16.2310 C   0  0  0  0  0  0  0  0  0  0  0  0
    7.9826   -7.4018   15.5628 C   0  0  0  0  0  0  0  0  0  0  0  0
    9.2443   -8.2039   17.9053 C   0  0  0  0  0  0  0  0  0  0  0  0
    4.3766   -8.2340   16.6357 C   0  0  0  0  0  0  0  0  0  0  0  0
   12.1002   -4.1272   18.7283 C   0  0  0  0  0  0  0  0  0  0  0  0
    7.1265   -7.9178   16.3198 C   0  0  0  0  0  0  0  0  0  0  0  0
    4.7530   -8.0784   17.0185 C   0  0  0  0  0  0  0  0  0  0  0  0
   12.6680   -4.6056   17.2303 C   0  0  0  0  0  0  0  0  0  0  0  0
    6.9287   -6.6329   15.3557 C   0  0  0  0  0  0  0  0  0  0  0  0
   11.1554   -3.9444   20.6812 C   0  0  0  0  0  0  0  0  0  0  0  0
   10.8969   -5.5435   19.0138 C   0  0  0  0  0  0  0  0  0  0  0  0
    5.0617   -9.0224   17.7952 C   0  0  0  0  0  0  0  0  0  0  0  0
    9.6143   -4.7794   17.1333 C   0  0  0  0  0  0  0  0  0  0  0  0
    4.4533   -9.2231   17.3466 C   0  0  0  0  0  0  0  0  0  0  0  0
   11.2491   -3.3204   17.7228 C   0  0  0  0  0  0  0  0  0  0  0  0
    8.2547   -6.8550   17.2847 C   0  0  0  0  0  0  0  0  0  0  0  0
    8.4919   -6.3993   17.3406 C   0  0  0  0  0  0  0  0  0  0  0  0
  1 11  1  0
  7 23  1  0
  8 18  1  0
  9 14  4  0
 10 14  1  0
 10 17  1  0
 12 15  4  0
 12 22  4  0
 15 20  4  0
 20 22  4  0
 24 25  1  0
M  END
$$$$

 Created by Python create_sdf_string function

 25 19  0  0  0  0  0  0  0  0999 V2000
    9.4658   -7.5615   20.3231 N   0  0  0  0  0  0  0  0  0  0  0  0
   10.6639   -3.5211   16.2646 P   0  0  0  0  0  0  0  0  0  0  0  0
    9.6234   -5.1207   19.6766 C   0  0  0  0  0  0  0  0  0  0  0  0
    8.9321   -5.2404   19.5799 P   0  0  0  0  0  0  0  0  0  0  0  0
   11.8427   -2.3760   20.5734 C   0  0  0  0  0  0  0  0  0  0  0  0
   10.1510   -7.5875   16.9732 C   0  0  0  0  0  0  0  0  0  0  0  0
   12.5785   -3.1021   18.2312 O   0  0  0  0  0  0  0  0  0  0  0  0
    7.3113   -6.5540   16.3788 C   0  0  0  0  0  0  0  0  0  0  0  0
    4.8421   -7.9008   16.1568 C   0  0  0  0  0  0  0  0  0  0  0  0
   10.6363   -5.5025   18.9957 C   0  0  0  0  0  0  0  0  0  0  0  0
   11.2100   -2.2897   18.1909 C   0  0  0  0  0  0  0  0  0  0  0  0
    8.8473   -6.7962   18.1205 C   0  0  0  0  0  0  0  0  0  0  0  0
   11.5807   -6.6936   18.3834 He  0  0  0  0  0  0  0  0  0  0  0  0
   10.9234   -3.3330   18.6290 He  0  0  0  0  0  0  0  0  0  0  0  0
   12.1853   -3.8162   21.8726 He  0  0  0  0  0  0  0  0  0  0  0  0
    6.7582   -6.9607   16.4685 He  0  0  0  0  0  0  0  0  0  0  0  0
    8.0021   -7.6081   16.6669 He  0  0  0  0  0  0  0  0  0  0  0  0
    4.4102   -7.3589   16.1936 He  0  0  0  0  0  0  0  0  0  0  0  0
   11.1845   -5.2059   17.1045 He  0  0  0  0  0  0  0  0  0  0  0  0
    7.1378   -5.9857   16.1289 He  0  0  0  0  0  0  0  0  0  0  0  0
   11.4120   -4.0875   20.3484 He  0  0  0  0  0  0  0  0  0  0  0  0
    5.1284   -7.9886   18.2439 He  0  0  0  0  0  0  0  0  0  0  0  0
    8.6545   -4.7313   15.3498 He  0  0  0  0  0  0  0  0  0  0  0  0
    3.8954   -8.8660   16.7488 He  0  0  0  0  0  0  0  0  0  0  0  0
    8.7566   -7.4634   17.6480 He  0  0  0  0  0  0  0  0  0  0  0  0
  1  5  4  0
  1  6  3  0
  1  9  4  0
  1 11  1  0
  2  8  1  0
  2  9  2  0
  2 10  1  0
  2 12  4  0
  3  4  3  0
  3  5  3  0
  3  9  4  0
  4 10  1  0
  4 12  2  0
  5  7  2  0
  5  9  2  0
  5 10  4  0
  7  8  3  0
  7  9  1  0
  9 10  4  0
M  END
$$$$

 Created by Python create_sdf_string function

 25 11  0  0  0  0  0  0  0  0999 V2000
    9.8889   -7.4739   19.2311 C   0  0  0  0  0  0  0  0  0  0  0  0
   10.5404   -3.9188   16.4368 C   0  0  0  0  0  0  0  0  0  0  0  0
   10.2107   -4.8725   19.4992 C   0  0  0  0  0  0  0  0  0  0  0  0
   11.0344   -6.6066   18.5770 C   0  0  0  0  0  0  0  0  0  0  0  0
    9.7762   -5.3251   19.0646 C   0  0  0  0  0  0  0  0  0  0  0  0
   11.3913   -3.0512   21.2482 C   0  0  0  0  0  0  0  0  0  0  0  0
   10.9942   -3.5765   18.9818 C   0  0  0  0  0  0  0  0  0  0  0  0
   11.3964   -3.7640   21.7009 C   0  0  0  0  0  0  0  0  0  0  0  0
    6.2062   -7.3765   16.4658 C   0  0  0  0  0  0  0  0  0  0  0  0
    7.9769   -7.4957   16.6384 C   0  0  0  0  0  0  0  0  0  0  0  0
    9.5838   -7.3714   17.5470 C   0  0  0  0  0  0  0  0  0  0  0  0
    4.5019   -7.9445   16.2755 C   0  0  0  0  0  0  0  0  0  0  0  0
   11.5983   -2.9656   17.9611 O   0  0  0  0  0  0  0  0  0  0  0  0
    6.8189   -7.3065   16.4662 C   0  0  0  0  0  0  0  0  0  0  0  0
    5.2156   -8.1847   16.5111 C   0  0  0  0  0  0  0  0  0  0  0  0
   10.6876   -4.5715   17.1235 C   0  0  0  0  0  0  0  0  0  0  0  0
    7.6439   -5.9874   15.8519 C   0  0  0  0  0  0  0  0  0  0  0  0
   11.3479   -3.9648   20.6470 C   0  0  0  0  0  0  0  0  0  0  0  0
   10.3580   -5.1382   18.7796 C   0  0  0  0  0  0  0  0  0  0  0  0
    5.4466   -8.4497   17.8685 C   0  0  0  0  0  0  0  0  0  0  0  0
    8.6872   -5.0813   15.9483 C   0  0  0  0  0  0  0  0  0  0  0  0
    4.0670   -8.5375   16.9701 C   0  0  0  0  0  0  0  0  0  0  0  0
   11.0909   -2.8128   18.5820 C   0  0  0  0  0  0  0  0  0  0  0  0
    8.8674   -6.7607   17.6370 C   0  0  0  0  0  0  0  0  0  0  0  0
    8.4323   -7.4266   17.7352 C   0  0  0  0  0  0  0  0  0  0  0  0
  2 16  1  0
  5 19  1  0
  6  8  4  0
  7 23  1  0
  8 18  1  0
  9 14  4  0
 10 14  1  0
 12 22  4  0
 17 21  1  0
 20 22  4  0
 24 25  1  0
M  END
$$$$

 Created by Python create_sdf_string function

 25 28  0  0  0  0  0  0  0  0999 V2000
   11.7239   -7.0648   19.4235 N   0  0  0  0  0  0  0  0  0  0  0  0
    9.9117   -3.8162   16.2904 O   0  0  0  0  0  0  0  0  0  0  0  0
   11.2005   -5.4059   20.4933 C   0  0  0  0  0  0  0  0  0  0  0  0
   10.5156   -6.1326   18.9547 Br  0  0  0  0  0  0  0  0  0  0  0  0
   10.7097   -2.7332   19.8863 C   0  0  0  0  0  0  0  0  0  0  0  0
    7.5968   -7.0733   16.9261 C   0  0  0  0  0  0  0  0  0  0  0  0
   11.6135   -2.8474   18.6850 O   0  0  0  0  0  0  0  0  0  0  0  0
    7.3290   -7.2717   16.1847 O   0  0  0  0  0  0  0  0  0  0  0  0
   10.6001   -4.4851   16.7218 C   0  0  0  0  0  0  0  0  0  0  0  0
    7.2111   -7.3104   16.4754 Se  0  0  0  0  0  0  0  0  0  0  0  0
    6.1117   -9.8713   16.9437 O   0  0  0  0  0  0  0  0  0  0  0  0
    9.3913   -4.4384   16.5078 C   0  0  0  0  0  0  0  0  0  0  0  0
   11.7497   -2.9176   18.9365 C   0  0  0  0  0  0  0  0  0  0  0  0
    8.8073   -7.4920   17.3321 O   0  0  0  0  0  0  0  0  0  0  0  0
    8.0310   -6.5309   17.2443 C   0  0  0  0  0  0  0  0  0  0  0  0
   10.0796   -5.7853   18.0577 He  0  0  0  0  0  0  0  0  0  0  0  0
   10.7409   -3.5061   22.2858 He  0  0  0  0  0  0  0  0  0  0  0  0
   11.8995   -3.6999   20.0414 He  0  0  0  0  0  0  0  0  0  0  0  0
    5.7231   -8.5727   16.4546 He  0  0  0  0  0  0  0  0  0  0  0  0
    9.3268   -6.4446   16.5379 He  0  0  0  0  0  0  0  0  0  0  0  0
    4.1486   -7.4571   18.5900 He  0  0  0  0  0  0  0  0  0  0  0  0
    4.3445   -8.7747   15.5776 He  0  0  0  0  0  0  0  0  0  0  0  0
   12.4526   -2.4007   20.7476 He  0  0  0  0  0  0  0  0  0  0  0  0
   10.0228   -4.7531   18.3137 He  0  0  0  0  0  0  0  0  0  0  0  0
    3.0722   -8.1871   16.0494 He  0  0  0  0  0  0  0  0  0  0  0  0
  1  5  2  0
  1 10  3  0
  2  3  1  0
  2  4  1  0
  2  9  1  0
  2 13  4  0
  2 15  2  0
  3  7  1  0
  3 11  4  0
  4  8  4  0
  4  9  4  0
  4 10  2  0
  4 14  2  0
  5  6  4  0
  5 13  4  0
  5 15  1  0
  6  8  1  0
  6 12  4  0
  7 11  2  0
  7 13  2  0
  8 14  4  0
  8 15  3  0
 10 12  2  0
 11 12  3  0
 11 15  4  0
 12 15  2  0
 13 14  2  0
 14 15  1  0
M  END
$$$$

 Created by Python create_sdf_string function

 25 14  0  0  0  0  0  0  0  0999 V2000
   10.8080   -6.4678   19.4170 C   0  0  0  0  0  0  0  0  0  0  0  0
   10.1799   -3.8173   16.1078 O   0  0  0  0  0  0  0  0  0  0  0  0
   11.1262   -5.2204   20.7391 C   0  0  0  0  0  0  0  0  0  0  0  0
   10.3079   -6.0187   18.6579 C   0  0  0  0  0  0  0  0  0  0  0  0
   10.2245   -5.6220   18.3618 C   0  0  0  0  0  0  0  0  0  0  0  0
   11.0692   -3.5118   22.3163 O   0  0  0  0  0  0  0  0  0  0  0  0
   11.1282   -3.4776   19.9864 C   0  0  0  0  0  0  0  0  0  0  0  0
   11.2768   -3.8016   20.8361 C   0  0  0  0  0  0  0  0  0  0  0  0
    5.7369   -8.7228   16.5479 C   0  0  0  0  0  0  0  0  0  0  0  0
    7.2949   -7.1003   16.6698 C   0  0  0  0  0  0  0  0  0  0  0  0
    9.1034   -6.3846   16.7818 C   0  0  0  0  0  0  0  0  0  0  0  0
    4.7454   -7.9444   17.4178 C   0  0  0  0  0  0  0  0  0  0  0  0
   11.2947   -2.1998   18.3481 O   0  0  0  0  0  0  0  0  0  0  0  0
    7.0546   -7.3665   16.2796 C   0  0  0  0  0  0  0  0  0  0  0  0
    4.5015   -8.6620   15.9981 C   0  0  0  0  0  0  0  0  0  0  0  0
   10.3202   -4.0299   16.9125 C   0  0  0  0  0  0  0  0  0  0  0  0
    6.4356   -7.6390   16.5294 C   0  0  0  0  0  0  0  0  0  0  0  0
   11.6693   -2.6143   21.0333 O   0  0  0  0  0  0  0  0  0  0  0  0
   10.5665   -4.6580   18.3217 C   0  0  0  0  0  0  0  0  0  0  0  0
    6.2096   -9.3435   16.9787 O   0  0  0  0  0  0  0  0  0  0  0  0
    8.9329   -4.7998   16.2438 C   0  0  0  0  0  0  0  0  0  0  0  0
    3.5719   -8.6505   16.5713 O   0  0  0  0  0  0  0  0  0  0  0  0
   11.0819   -3.0328   18.8268 C   0  0  0  0  0  0  0  0  0  0  0  0
    8.7358   -7.7941   17.4868 C   0  0  0  0  0  0  0  0  0  0  0  0
    8.5616   -6.5574   16.8600 C   0  0  0  0  0  0  0  0  0  0  0  0
  1  3  4  0
  2 16  1  0
  3  8  4  0
  4  5  4  0
  5 19  4  0
  7  8  4  0
  7 23  4  0
  9 15  1  0
  9 20  1  0
 10 14  1  0
 11 25  1  0
 13 23  2  0
 14 17  1  0
 24 25  1  0
M  END
$$$$

 Created by Python create_sdf_string function

 25 30  0  0  0  0  0  0  0  0999 V2000
   11.3057   -5.3140   21.9245 I   0  0  0  0  0  0  0  0  0  0  0  0
    9.7829   -5.3847   18.1467 Cl  0  0  0  0  0  0  0  0  0  0  0  0
   11.5465   -3.9427   22.4746 O   0  0  0  0  0  0  0  0  0  0  0  0
   11.3910   -5.4471   20.3706 C   0  0  0  0  0  0  0  0  0  0  0  0
    5.4052   -9.3349   16.9186 N   0  0  0  0  0  0  0  0  0  0  0  0
    7.7071   -6.0331   15.9881 Cl  0  0  0  0  0  0  0  0  0  0  0  0
    9.9224   -2.5564   17.6876 P   0  0  0  0  0  0  0  0  0  0  0  0
    4.0848   -9.3460   15.5776 C   0  0  0  0  0  0  0  0  0  0  0  0
   11.1193   -4.4319   17.1718 C   0  0  0  0  0  0  0  0  0  0  0  0
   12.0016   -0.8623   19.7918 O   0  0  0  0  0  0  0  0  0  0  0  0
    6.3756  -10.5388   18.0742 P   0  0  0  0  0  0  0  0  0  0  0  0
    3.3331   -7.8975   16.8477 O   0  0  0  0  0  0  0  0  0  0  0  0
   10.9670   -2.9373   19.2757 N   0  0  0  0  0  0  0  0  0  0  0  0
    8.1292   -7.9594   17.4146 C   0  0  0  0  0  0  0  0  0  0  0  0
    7.7223   -7.1960   16.8376 C   0  0  0  0  0  0  0  0  0  0  0  0
    9.6614   -7.2586   19.8225 He  0  0  0  0  0  0  0  0  0  0  0  0
   10.3613   -4.4350   16.0828 He  0  0  0  0  0  0  0  0  0  0  0  0
    9.2747   -5.5643   18.1294 He  0  0  0  0  0  0  0  0  0  0  0  0
   10.6077   -3.4884   19.9402 He  0  0  0  0  0  0  0  0  0  0  0  0
    9.4241   -6.2858   17.3510 He  0  0  0  0  0  0  0  0  0  0  0  0
    3.8770   -8.1424   17.3666 He  0  0  0  0  0  0  0  0  0  0  0  0
    6.4252   -6.8323   15.7429 He  0  0  0  0  0  0  0  0  0  0  0  0
    5.6578   -7.5031   16.7768 He  0  0  0  0  0  0  0  0  0  0  0  0
   10.8617   -4.4956   18.5092 He  0  0  0  0  0  0  0  0  0  0  0  0
    9.6073   -4.3478   15.9786 He  0  0  0  0  0  0  0  0  0  0  0  0
  1  2  2  0
  1  4  4  0
  1  5  2  0
  1 11  4  0
  1 13  4  0
  2  6  2  0
  2 11  1  0
  2 12  1  0
  2 13  1  0
  3  8  4  0
  3  9  1  0
  3 15  4  0
  4 10  1  0
  5  8  1  0
  5 11  4  0
  5 13  4  0
  6  8  2  0
  6 11  1  0
  6 15  3  0
  7  8  4  0
  7  9  2  0
  7 10  2  0
  8 10  3  0
  8 13  4  0
  9 13  2  0
  9 14  1  0
  9 15  2  0
 10 14  1  0
 12 15  3  0
 14 15  1  0
M  END
$$$$

 Created by Python create_sdf_string function

 25 19  0  0  0  0  0  0  0  0999 V2000
    9.7601   -7.4106   18.8598 C   0  0  0  0  0  0  0  0  0  0  0  0
   10.4135   -3.9828   16.0101 C   0  0  0  0  0  0  0  0  0  0  0  0
   10.9266   -5.3778   21.0402 C   0  0  0  0  0  0  0  0  0  0  0  0
   10.0717   -5.1523   18.3431 C   0  0  0  0  0  0  0  0  0  0  0  0
    9.7697   -5.4024   17.8390 C   0  0  0  0  0  0  0  0  0  0  0  0
   11.3592   -3.6067   22.1268 O   0  0  0  0  0  0  0  0  0  0  0  0
   11.1715   -3.3767   20.6015 C   0  0  0  0  0  0  0  0  0  0  0  0
   10.9342   -5.0734   20.9882 C   0  0  0  0  0  0  0  0  0  0  0  0
    5.4795   -9.3281   17.4324 C   0  0  0  0  0  0  0  0  0  0  0  0
    7.5925   -6.0555   15.9013 C   0  0  0  0  0  0  0  0  0  0  0  0
    9.2352   -6.7077   17.7927 C   0  0  0  0  0  0  0  0  0  0  0  0
    4.0381   -8.8229   16.8730 C   0  0  0  0  0  0  0  0  0  0  0  0
   10.9931   -3.0319   17.7503 C   0  0  0  0  0  0  0  0  0  0  0  0
    6.2066   -7.1474   16.0991 C   0  0  0  0  0  0  0  0  0  0  0  0
    4.4384   -8.3754   16.3081 C   0  0  0  0  0  0  0  0  0  0  0  0
   10.9293   -3.7840   16.7347 C   0  0  0  0  0  0  0  0  0  0  0  0
    5.9513   -7.7863   16.5000 C   0  0  0  0  0  0  0  0  0  0  0  0
   11.3202   -1.9248   20.0537 O   0  0  0  0  0  0  0  0  0  0  0  0
   10.5309   -4.6082   18.9087 C   0  0  0  0  0  0  0  0  0  0  0  0
    6.1992   -9.4507   17.5701 C   0  0  0  0  0  0  0  0  0  0  0  0
    9.1722   -4.6838   16.1052 C   0  0  0  0  0  0  0  0  0  0  0  0
    3.2679   -8.1637   16.5136 O   0  0  0  0  0  0  0  0  0  0  0  0
   11.0375   -3.3073   19.7053 C   0  0  0  0  0  0  0  0  0  0  0  0
    8.2968   -7.9665   17.4320 C   0  0  0  0  0  0  0  0  0  0  0  0
    7.7901   -7.4270   16.9801 C   0  0  0  0  0  0  0  0  0  0  0  0
  1 11  1  0
  2 16  1  0
  3  8  4  0
  4  5  4  0
  4 19  4  0
  5 11  1  0
  5 19  4  0
  5 21  1  0
  6  7  1  0
  7 18  2  0
  7 23  4  0
  9 12  4  0
  9 20  4  0
 10 14  1  0
 10 21  4  0
 12 15  4  0
 13 16  4  0
 14 17  4  0
 24 25  1  0
M  END
$$$$

 Created by Python create_sdf_string function

 25 35  0  0  0  0  0  0  0  0999 V2000
   10.0236   -7.3899   18.3884 C   0  0  0  0  0  0  0  0  0  0  0  0
    8.6741   -4.2221   17.9691 C   0  0  0  0  0  0  0  0  0  0  0  0
   12.3081   -2.1288   21.4184 O   0  0  0  0  0  0  0  0  0  0  0  0
   11.4146   -5.6902   20.7038 C   0  0  0  0  0  0  0  0  0  0  0  0
    4.8432   -8.5904   18.0353 N   0  0  0  0  0  0  0  0  0  0  0  0
    9.9227   -6.4070   16.9494 C   0  0  0  0  0  0  0  0  0  0  0  0
    4.5410   -8.1028   17.7879 C   0  0  0  0  0  0  0  0  0  0  0  0
    5.1014   -8.1582   16.4620 O   0  0  0  0  0  0  0  0  0  0  0  0
   10.2974   -3.2615   18.0420 C   0  0  0  0  0  0  0  0  0  0  0  0
    5.3733   -8.1238   17.7499 N   0  0  0  0  0  0  0  0  0  0  0  0
   11.2452   -2.5410   19.9134 B   0  0  0  0  0  0  0  0  0  0  0  0
    9.6070   -5.5516   16.8158 C   0  0  0  0  0  0  0  0  0  0  0  0
    3.4443   -7.6684   16.0099 O   0  0  0  0  0  0  0  0  0  0  0  0
    7.2634   -8.3894   17.1450 C   0  0  0  0  0  0  0  0  0  0  0  0
   10.2881   -4.0947   15.0383 He  0  0  0  0  0  0  0  0  0  0  0  0
   10.2027   -4.7807   20.3371 He  0  0  0  0  0  0  0  0  0  0  0  0
   10.6957   -5.1847   16.9423 He  0  0  0  0  0  0  0  0  0  0  0  0
   11.9251   -3.2334   19.8518 He  0  0  0  0  0  0  0  0  0  0  0  0
    7.2583   -5.2527   16.6109 He  0  0  0  0  0  0  0  0  0  0  0  0
   11.3380   -3.7898   17.9668 He  0  0  0  0  0  0  0  0  0  0  0  0
    5.7052   -6.7307   16.4470 He  0  0  0  0  0  0  0  0  0  0  0  0
   10.7346   -4.6427   18.5985 He  0  0  0  0  0  0  0  0  0  0  0  0
    6.2069  -10.7815   17.5857 He  0  0  0  0  0  0  0  0  0  0  0  0
   11.2217   -2.8746   20.2051 He  0  0  0  0  0  0  0  0  0  0  0  0
    7.9689   -8.0749   17.1055 He  0  0  0  0  0  0  0  0  0  0  0  0
  1  3  1  0
  1  6  1  0
  1 10  1  0
  1 12  1  0
  1 13  1  0
  1 14  1  0
  2  5  4  0
  2  6  4  0
  2 10  3  0
  2 11  2  0
  2 12  1  0
  3  4  2  0
  3  6  3  0
  3  7  1  0
  3 13  3  0
  3 14  3  0
  4  9  3  0
  4 11  4  0
  5  7  3  0
  5  8  3  0
  5 14  2  0
  6  8  1  0
  6 14  3  0
  7  8  4  0
  7 10  4  0
  7 12  4  0
  7 13  4  0
  8  9  4  0
  8 11  4  0
  8 13  1  0
  8 14  3  0
  9 12  4  0
 10 13  3  0
 12 14  2  0
 13 14  4  0
M  END
$$$$

 Created by Python create_sdf_string function

 25 14  0  0  0  0  0  0  0  0999 V2000
    9.7398   -7.4430   18.2767 C   0  0  0  0  0  0  0  0  0  0  0  0
   10.2978   -3.7520   15.9670 C   0  0  0  0  0  0  0  0  0  0  0  0
   10.7363   -5.1467   20.1559 C   0  0  0  0  0  0  0  0  0  0  0  0
   10.2056   -4.7346   16.9046 C   0  0  0  0  0  0  0  0  0  0  0  0
    9.4087   -5.1549   17.3835 C   0  0  0  0  0  0  0  0  0  0  0  0
   11.9023   -2.4238   21.9791 O   0  0  0  0  0  0  0  0  0  0  0  0
   11.3190   -3.1448   20.3631 C   0  0  0  0  0  0  0  0  0  0  0  0
   11.0636   -4.7346   21.0232 C   0  0  0  0  0  0  0  0  0  0  0  0
    4.8764   -9.2946   17.6460 C   0  0  0  0  0  0  0  0  0  0  0  0
    7.6652   -5.8490   16.1481 C   0  0  0  0  0  0  0  0  0  0  0  0
    9.2856   -7.0691   17.5650 C   0  0  0  0  0  0  0  0  0  0  0  0
    4.5479   -8.5360   17.3118 C   0  0  0  0  0  0  0  0  0  0  0  0
   11.0407   -3.2919   17.4104 C   0  0  0  0  0  0  0  0  0  0  0  0
    6.4699   -6.8209   16.3551 C   0  0  0  0  0  0  0  0  0  0  0  0
    5.1645   -7.9571   16.6074 C   0  0  0  0  0  0  0  0  0  0  0  0
   10.9403   -3.4427   18.4583 C   0  0  0  0  0  0  0  0  0  0  0  0
    5.8063   -8.3542   17.4444 C   0  0  0  0  0  0  0  0  0  0  0  0
   11.3460   -2.5976   20.4288 O   0  0  0  0  0  0  0  0  0  0  0  0
   10.4662   -4.7772   18.9531 C   0  0  0  0  0  0  0  0  0  0  0  0
    6.3296   -9.6646   17.4025 C   0  0  0  0  0  0  0  0  0  0  0  0
    9.1359   -5.5631   16.9178 C   0  0  0  0  0  0  0  0  0  0  0  0
    3.7182   -7.8741   16.4561 O   0  0  0  0  0  0  0  0  0  0  0  0
   11.3450   -2.7946   20.2194 C   0  0  0  0  0  0  0  0  0  0  0  0
    7.8842   -8.2679   17.1256 C   0  0  0  0  0  0  0  0  0  0  0  0
    7.7503   -8.0511   17.2522 C   0  0  0  0  0  0  0  0  0  0  0  0
  1 11  1  0
  3  8  4  0
  3 19  4  0
  4  5  4  0
  5 21  1  0
  7 23  4  0
 10 14  1  0
 10 21  4  0
 12 15  4  0
 12 17  4  0
 13 16  4  0
 16 19  4  0
 16 23  4  0
 24 25  4  0
M  END
$$$$

 Created by Python create_sdf_string function

 25 25  0  0  0  0  0  0  0  0999 V2000
    9.8440   -1.4178   16.4508 P   0  0  0  0  0  0  0  0  0  0  0  0
   10.4084   -3.7699   16.6105 C   0  0  0  0  0  0  0  0  0  0  0  0
    6.9347   -6.8955   16.3321 O   0  0  0  0  0  0  0  0  0  0  0  0
    8.0592   -7.3032   18.6106 C   0  0  0  0  0  0  0  0  0  0  0  0
   11.0242   -3.9433   18.5253 C   0  0  0  0  0  0  0  0  0  0  0  0
    6.3521   -6.5551   15.2961 C   0  0  0  0  0  0  0  0  0  0  0  0
    5.2262   -7.4945   16.4843 C   0  0  0  0  0  0  0  0  0  0  0  0
   10.9535   -5.2798   18.5521 Cl  0  0  0  0  0  0  0  0  0  0  0  0
    6.9605   -9.7570   18.2001 C   0  0  0  0  0  0  0  0  0  0  0  0
   11.3866   -3.1135   20.3866 F   0  0  0  0  0  0  0  0  0  0  0  0
   11.5408   -4.4473   18.0454 C   0  0  0  0  0  0  0  0  0  0  0  0
    7.9690   -5.2548   17.0565 C   0  0  0  0  0  0  0  0  0  0  0  0
    3.4068   -8.2001   16.4128 O   0  0  0  0  0  0  0  0  0  0  0  0
   12.1341   -3.7373   20.2250 C   0  0  0  0  0  0  0  0  0  0  0  0
    8.5251   -8.7317   17.6176 C   0  0  0  0  0  0  0  0  0  0  0  0
   10.0234   -7.1191   17.5648 He  0  0  0  0  0  0  0  0  0  0  0  0
   10.6198   -5.3211   20.4154 He  0  0  0  0  0  0  0  0  0  0  0  0
    9.4320   -5.2964   17.0240 He  0  0  0  0  0  0  0  0  0  0  0  0
   11.9495   -3.3882   21.8768 He  0  0  0  0  0  0  0  0  0  0  0  0
   11.7465   -2.7751   19.7732 He  0  0  0  0  0  0  0  0  0  0  0  0
   10.4193   -3.8749   20.5574 He  0  0  0  0  0  0  0  0  0  0  0  0
    4.6457   -9.8623   18.2664 He  0  0  0  0  0  0  0  0  0  0  0  0
    3.4649   -7.8840   16.2001 He  0  0  0  0  0  0  0  0  0  0  0  0
    5.6694  -10.2423   17.6066 He  0  0  0  0  0  0  0  0  0  0  0  0
    8.4927   -8.4968   17.8113 He  0  0  0  0  0  0  0  0  0  0  0  0
  1  3  3  0
  1 14  2  0
  1 15  3  0
  2  4  2  0
  2  5  2  0
  2 10  3  0
  2 12  3  0
  3  7  3  0
  3 13  2  0
  4  9  4  0
  4 13  1  0
  4 15  4  0
  5  9  1  0
  5 10  1  0
  6 12  1  0
  6 13  1  0
  6 14  1  0
  6 15  3  0
  7 13  4  0
  8 10  1  0
  9 10  4  0
 11 12  1  0
 12 14  2  0
 12 15  1  0
 13 15  1  0
M  END
$$$$

 Created by Python create_sdf_string function

 25 12  0  0  0  0  0  0  0  0999 V2000
    9.6324   -6.9219   18.1684 C   0  0  0  0  0  0  0  0  0  0  0  0
   10.6608   -3.1041   16.6388 C   0  0  0  0  0  0  0  0  0  0  0  0
   10.8447   -5.2443   20.1015 C   0  0  0  0  0  0  0  0  0  0  0  0
   10.3981   -3.9347   16.4878 C   0  0  0  0  0  0  0  0  0  0  0  0
    9.4586   -5.2240   16.8858 C   0  0  0  0  0  0  0  0  0  0  0  0
   11.6551   -3.4321   22.0724 O   0  0  0  0  0  0  0  0  0  0  0  0
   11.4307   -2.7321   19.6732 C   0  0  0  0  0  0  0  0  0  0  0  0
   10.7478   -4.0498   21.1794 C   0  0  0  0  0  0  0  0  0  0  0  0
    4.8947   -9.8668   17.9869 C   0  0  0  0  0  0  0  0  0  0  0  0
    7.0622   -6.8335   16.3503 C   0  0  0  0  0  0  0  0  0  0  0  0
    8.1840   -7.7519   17.7814 C   0  0  0  0  0  0  0  0  0  0  0  0
    4.0797   -8.2595   16.6431 C   0  0  0  0  0  0  0  0  0  0  0  0
   10.7868   -3.9081   18.2198 C   0  0  0  0  0  0  0  0  0  0  0  0
    6.9652   -6.3041   15.7186 C   0  0  0  0  0  0  0  0  0  0  0  0
    5.0312   -7.6820   16.3612 C   0  0  0  0  0  0  0  0  0  0  0  0
   10.6100   -5.3050   18.8023 C   0  0  0  0  0  0  0  0  0  0  0  0
    6.3412   -8.7834   17.6760 C   0  0  0  0  0  0  0  0  0  0  0  0
   11.1574   -3.4555   20.7874 C   0  0  0  0  0  0  0  0  0  0  0  0
   11.0269   -4.4907   18.3827 C   0  0  0  0  0  0  0  0  0  0  0  0
    5.2386   -9.5364   17.8316 C   0  0  0  0  0  0  0  0  0  0  0  0
    8.4629   -5.7426   16.3587 C   0  0  0  0  0  0  0  0  0  0  0  0
    3.8975   -8.3733   16.6541 C   0  0  0  0  0  0  0  0  0  0  0  0
   11.6056   -3.4550   20.5137 C   0  0  0  0  0  0  0  0  0  0  0  0
    8.6781   -8.1210   17.5993 C   0  0  0  0  0  0  0  0  0  0  0  0
    8.0921   -8.1522   17.5119 C   0  0  0  0  0  0  0  0  0  0  0  0
  2  4  4  0
  3 16  4  0
  5 21  4  0
  8 18  1  0
  9 20  4  0
 11 25  4  0
 12 15  4  0
 12 22  4  0
 14 21  1  0
 15 22  4  0
 17 20  4  0
 24 25  1  0
M  END
$$$$

 Created by Python create_sdf_string function

 25 29  0  0  0  0  0  0  0  0999 V2000
   10.3263   -2.6116   17.6526 C   0  0  0  0  0  0  0  0  0  0  0  0
   11.6776   -5.8678   19.7037 O   0  0  0  0  0  0  0  0  0  0  0  0
   10.7114   -4.8433   21.4175 F   0  0  0  0  0  0  0  0  0  0  0  0
    5.1345   -9.1805   17.8063 C   0  0  0  0  0  0  0  0  0  0  0  0
    6.4809   -7.6930   17.4254 C   0  0  0  0  0  0  0  0  0  0  0  0
    7.3614   -7.2394   17.6886 C   0  0  0  0  0  0  0  0  0  0  0  0
    4.5236   -7.8817   17.7832 F   0  0  0  0  0  0  0  0  0  0  0  0
   11.6210   -3.8711   17.7804 O   0  0  0  0  0  0  0  0  0  0  0  0
    6.9726   -9.0130   16.8245 S   0  0  0  0  0  0  0  0  0  0  0  0
   11.6141   -4.1204   21.7057 Se  0  0  0  0  0  0  0  0  0  0  0  0
    9.5861   -5.4439   17.9220 C   0  0  0  0  0  0  0  0  0  0  0  0
    5.4386   -9.9759   16.9110 P   0  0  0  0  0  0  0  0  0  0  0  0
    7.9578   -4.7442   16.2571 C   0  0  0  0  0  0  0  0  0  0  0  0
   13.1899   -2.5686   20.0153 N   0  0  0  0  0  0  0  0  0  0  0  0
    7.3603   -7.4669   19.0778 C   0  0  0  0  0  0  0  0  0  0  0  0
    9.5981   -6.0074   18.5851 He  0  0  0  0  0  0  0  0  0  0  0  0
   10.4439   -3.5098   14.7954 He  0  0  0  0  0  0  0  0  0  0  0  0
    9.4021   -6.3246   17.2988 He  0  0  0  0  0  0  0  0  0  0  0  0
   11.3177   -1.7428   19.1563 He  0  0  0  0  0  0  0  0  0  0  0  0
   10.2273   -4.5905   21.0936 He  0  0  0  0  0  0  0  0  0  0  0  0
    6.7339   -5.2018   15.3917 He  0  0  0  0  0  0  0  0  0  0  0  0
    5.6519   -7.3329   16.0163 He  0  0  0  0  0  0  0  0  0  0  0  0
   10.1325   -5.1591   18.7704 He  0  0  0  0  0  0  0  0  0  0  0  0
    3.9077   -8.2646   16.4956 He  0  0  0  0  0  0  0  0  0  0  0  0
    8.4975   -7.7858   16.7361 He  0  0  0  0  0  0  0  0  0  0  0  0
  1  2  1  0
  1  7  1  0
  1 12  1  0
  2  5  4  0
  2  8  2  0
  3  5  1  0
  3  6  2  0
  3  8  3  0
  3 13  2  0
  4  8  4  0
  4 11  4  0
  4 12  3  0
  4 13  3  0
  4 14  1  0
  4 15  4  0
  5 10  3  0
  5 15  4  0
  6  8  3  0
  6 15  4  0
  7 10  2  0
  7 11  4  0
  7 12  2  0
  7 15  1  0
  8  9  2  0
  9 13  1  0
 10 11  2  0
 10 15  4  0
 12 14  1  0
 13 15  3  0
M  END
$$$$

 Created by Python create_sdf_string function

 25 12  0  0  0  0  0  0  0  0999 V2000
    9.9877   -5.9308   18.8180 C   0  0  0  0  0  0  0  0  0  0  0  0
   10.6391   -3.6509   16.8802 C   0  0  0  0  0  0  0  0  0  0  0  0
   11.1688   -5.3152   19.6353 O   0  0  0  0  0  0  0  0  0  0  0  0
    9.6442   -3.9139   15.8457 C   0  0  0  0  0  0  0  0  0  0  0  0
    9.2349   -5.9642   17.2347 C   0  0  0  0  0  0  0  0  0  0  0  0
   10.8080   -4.6664   21.4753 C   0  0  0  0  0  0  0  0  0  0  0  0
   11.3231   -2.5774   19.4157 O   0  0  0  0  0  0  0  0  0  0  0  0
   10.9484   -4.2743   20.9524 C   0  0  0  0  0  0  0  0  0  0  0  0
    5.3548   -9.0578   17.7632 C   0  0  0  0  0  0  0  0  0  0  0  0
    6.4598   -7.7518   17.7053 C   0  0  0  0  0  0  0  0  0  0  0  0
    7.4681   -7.5159   17.4540 C   0  0  0  0  0  0  0  0  0  0  0  0
    4.4690   -8.1821   17.0556 C   0  0  0  0  0  0  0  0  0  0  0  0
   11.1883   -3.7622   17.9507 C   0  0  0  0  0  0  0  0  0  0  0  0
    7.5622   -5.5652   15.4678 O   0  0  0  0  0  0  0  0  0  0  0  0
    5.8050   -7.9240   16.1363 C   0  0  0  0  0  0  0  0  0  0  0  0
   10.2391   -5.4568   18.7751 C   0  0  0  0  0  0  0  0  0  0  0  0
    6.8550   -8.8127   16.4728 C   0  0  0  0  0  0  0  0  0  0  0  0
   11.5124   -3.7329   21.6687 C   0  0  0  0  0  0  0  0  0  0  0  0
    9.8758   -5.4465   17.8733 C   0  0  0  0  0  0  0  0  0  0  0  0
    5.4453   -9.4802   16.9686 C   0  0  0  0  0  0  0  0  0  0  0  0
    8.6771   -5.0939   16.0400 C   0  0  0  0  0  0  0  0  0  0  0  0
    4.0998   -8.4867   16.7555 C   0  0  0  0  0  0  0  0  0  0  0  0
   11.7684   -3.1404   20.6662 C   0  0  0  0  0  0  0  0  0  0  0  0
    8.5566   -7.6517   17.1427 C   0  0  0  0  0  0  0  0  0  0  0  0
    7.2654   -7.7953   18.0812 C   0  0  0  0  0  0  0  0  0  0  0  0
  2  4  4  0
  2 13  4  0
  4 21  4  0
  5 16  4  0
  5 19  4  0
  5 21  4  0
  6  8  1  0
  9 20  1  0
 10 25  4  0
 12 22  1  0
 14 21  1  0
 15 17  1  0
M  END
$$$$

 Created by Python create_sdf_string function

 25 40  0  0  0  0  0  0  0  0999 V2000
    9.7623   -5.9462   17.3932 F   0  0  0  0  0  0  0  0  0  0  0  0
   10.4245   -3.6431   17.8224 S   0  0  0  0  0  0  0  0  0  0  0  0
    9.7946   -3.8739   15.1355 C   0  0  0  0  0  0  0  0  0  0  0  0
    8.7166   -5.6056   17.9214 C   0  0  0  0  0  0  0  0  0  0  0  0
   11.1538   -4.8952   21.3511 C   0  0  0  0  0  0  0  0  0  0  0  0
   10.6273   -4.1219   21.5036 C   0  0  0  0  0  0  0  0  0  0  0  0
    4.1866   -8.8325   17.9625 C   0  0  0  0  0  0  0  0  0  0  0  0
    6.7413   -8.1771   17.1859 C   0  0  0  0  0  0  0  0  0  0  0  0
   10.3347   -3.8171   17.7094 I   0  0  0  0  0  0  0  0  0  0  0  0
    6.1102   -5.0102   14.0662 Cl  0  0  0  0  0  0  0  0  0  0  0  0
    6.6738   -8.8504   15.3991 C   0  0  0  0  0  0  0  0  0  0  0  0
    5.5252   -8.8223   15.5736 Se  0  0  0  0  0  0  0  0  0  0  0  0
   11.8562   -4.0722   21.6486 N   0  0  0  0  0  0  0  0  0  0  0  0
    3.1231   -8.6255   15.8736 C   0  0  0  0  0  0  0  0  0  0  0  0
   10.6757   -4.8043   20.1643 O   0  0  0  0  0  0  0  0  0  0  0  0
    8.6636   -7.2293   18.0077 C   0  0  0  0  0  0  0  0  0  0  0  0
    7.1240   -7.7837   18.4525 F   0  0  0  0  0  0  0  0  0  0  0  0
   10.6418   -5.4624   18.9166 He  0  0  0  0  0  0  0  0  0  0  0  0
   11.8158   -2.6043   18.9861 He  0  0  0  0  0  0  0  0  0  0  0  0
    7.9354   -7.5637   17.9542 He  0  0  0  0  0  0  0  0  0  0  0  0
    5.0029   -7.5071   17.6089 He  0  0  0  0  0  0  0  0  0  0  0  0
   10.3443   -5.7150   19.7154 He  0  0  0  0  0  0  0  0  0  0  0  0
    8.7696   -6.5734   17.4847 He  0  0  0  0  0  0  0  0  0  0  0  0
    5.1257   -9.8329   16.6611 He  0  0  0  0  0  0  0  0  0  0  0  0
    9.1171   -5.2607   17.7214 He  0  0  0  0  0  0  0  0  0  0  0  0
  1  2  1  0
  1  4  2  0
  1  8  3  0
  1 11  2  0
  1 12  1  0
  1 14  2  0
  1 16  2  0
  2  3  4  0
  2  6  1  0
  2  9  4  0
  2 11  3  0
  3  5  4  0
  3 11  3  0
  3 15  3  0
  4  5  4  0
  4  8  1  0
  4 13  1  0
  5  6  1  0
  5  9  4  0
  5 13  4  0
  5 14  4  0
  5 16  3  0
  5 17  4  0
  6  9  2  0
  6 16  2  0
  6 17  3  0
  7 10  4  0
  7 14  2  0
  8  9  4  0
  8 10  1  0
  9 10  2  0
  9 13  3  0
  9 16  2  0
  9 17  3  0
 10 12  2  0
 11 16  1  0
 12 15  2  0
 13 15  4  0
 13 16  2  0
 15 17  1  0
M  END
$$$$

 Created by Python create_sdf_string function

 25 13  0  0  0  0  0  0  0  0999 V2000
    9.4833   -5.7190   17.5846 C   0  0  0  0  0  0  0  0  0  0  0  0
   10.6116   -3.7349   17.5270 C   0  0  0  0  0  0  0  0  0  0  0  0
   10.7332   -4.8297   19.5734 C   0  0  0  0  0  0  0  0  0  0  0  0
    9.4448   -3.9095   15.8765 C   0  0  0  0  0  0  0  0  0  0  0  0
    8.9470   -6.1139   17.4478 C   0  0  0  0  0  0  0  0  0  0  0  0
   11.1081   -4.5173   21.3557 C   0  0  0  0  0  0  0  0  0  0  0  0
   11.2951   -3.1200   19.2414 C   0  0  0  0  0  0  0  0  0  0  0  0
   10.8813   -4.0943   21.9556 C   0  0  0  0  0  0  0  0  0  0  0  0
    4.3321   -9.2760   17.3777 C   0  0  0  0  0  0  0  0  0  0  0  0
    7.1710   -7.8015   17.2011 C   0  0  0  0  0  0  0  0  0  0  0  0
    7.7825   -7.8978   17.5836 C   0  0  0  0  0  0  0  0  0  0  0  0
    5.4391   -7.9824   16.9514 C   0  0  0  0  0  0  0  0  0  0  0  0
   10.6791   -3.6725   17.4601 C   0  0  0  0  0  0  0  0  0  0  0  0
    7.0179   -5.9550   15.1503 O   0  0  0  0  0  0  0  0  0  0  0  0
    6.1465   -8.3566   15.8870 C   0  0  0  0  0  0  0  0  0  0  0  0
   10.3539   -5.7043   19.3891 C   0  0  0  0  0  0  0  0  0  0  0  0
    5.4299   -8.2353   15.6530 C   0  0  0  0  0  0  0  0  0  0  0  0
   11.5144   -4.1001   21.6533 N   0  0  0  0  0  0  0  0  0  0  0  0
    8.4819   -6.8493   17.6541 C   0  0  0  0  0  0  0  0  0  0  0  0
    4.6566   -9.2983   16.9924 C   0  0  0  0  0  0  0  0  0  0  0  0
    9.0750   -5.2358   16.7224 C   0  0  0  0  0  0  0  0  0  0  0  0
    3.8080   -8.8666   16.3140 C   0  0  0  0  0  0  0  0  0  0  0  0
   10.9914   -4.5292   20.3827 C   0  0  0  0  0  0  0  0  0  0  0  0
    8.9426   -7.7381   17.9336 C   0  0  0  0  0  0  0  0  0  0  0  0
    6.7025   -8.0026   18.2812 C   0  0  0  0  0  0  0  0  0  0  0  0
  1  5  4  0
  2 13  4  0
  3 16  4  0
  3 23  4  0
  4 21  4  0
  6  8  1  0
  6 18  4  0
  9 20  4  0
 10 11  1  0
 12 15  4  0
 15 17  4  0
 18 23  4  0
 20 22  4  0
M  END
$$$$

 Created by Python create_sdf_string function

 25 73  0  0  0  0  0  0  0  0999 V2000
   10.1798   -5.2062   17.4158 C   0  0  0  0  0  0  0  0  0  0  0  0
   10.2726   -3.0112   17.7035 C   0  0  0  0  0  0  0  0  0  0  0  0
   11.0705   -4.1564   19.4543 Se  0  0  0  0  0  0  0  0  0  0  0  0
    8.8645   -4.7854   15.3995 C   0  0  0  0  0  0  0  0  0  0  0  0
    9.8107   -6.4237   17.4659 C   0  0  0  0  0  0  0  0  0  0  0  0
   11.7642   -5.8991   21.0083 S   0  0  0  0  0  0  0  0  0  0  0  0
   11.6891   -3.3639   19.1178 Se  0  0  0  0  0  0  0  0  0  0  0  0
    3.3540   -8.4545   17.7204 C   0  0  0  0  0  0  0  0  0  0  0  0
    7.2295   -7.9709   16.8651 N   0  0  0  0  0  0  0  0  0  0  0  0
    7.2464   -8.0068   18.6665 C   0  0  0  0  0  0  0  0  0  0  0  0
    5.5302   -7.9921   16.9443 C   0  0  0  0  0  0  0  0  0  0  0  0
    7.1713   -5.6949   14.9299 Cl  0  0  0  0  0  0  0  0  0  0  0  0
    5.9029   -8.4222   16.5775 C   0  0  0  0  0  0  0  0  0  0  0  0
    9.7041   -6.8093   19.3085 C   0  0  0  0  0  0  0  0  0  0  0  0
    5.9028   -8.9688   15.6037 C   0  0  0  0  0  0  0  0  0  0  0  0
   11.8085   -3.1827   21.5943 N   0  0  0  0  0  0  0  0  0  0  0  0
    8.4467   -7.6851   16.7192 N   0  0  0  0  0  0  0  0  0  0  0  0
    3.6762   -8.1832   16.2879 C   0  0  0  0  0  0  0  0  0  0  0  0
   12.2270   -4.0846   21.1886 C   0  0  0  0  0  0  0  0  0  0  0  0
    8.5232   -8.4351   17.1552 Br  0  0  0  0  0  0  0  0  0  0  0  0
    6.3755   -7.8387   18.5662 C   0  0  0  0  0  0  0  0  0  0  0  0
   10.8689   -4.4843   21.5786 He  0  0  0  0  0  0  0  0  0  0  0  0
   11.3015   -3.7367   16.8263 He  0  0  0  0  0  0  0  0  0  0  0  0
    4.5963  -10.1214   16.0637 He  0  0  0  0  0  0  0  0  0  0  0  0
   10.4666   -5.0538   17.2500 He  0  0  0  0  0  0  0  0  0  0  0  0
  1  3  4  0
  1  9  4  0
  1 13  3  0
  1 14  1  0
  1 15  2  0
  1 19  2  0
  1 20  2  0
  2  8  1  0
  2  9  1  0
  2 15  2  0
  2 17  2  0
  2 18  3  0
  2 19  4  0
  3  6  3  0
  3  8  4  0
  3  9  2  0
  3 12  4  0
  3 14  1  0
  3 16  4  0
  3 19  1  0
  4  8  3  0
  4 13  4  0
  4 15  3  0
  4 16  1  0
  5  7  2  0
  5 10  4  0
  5 11  4  0
  5 15  4  0
  5 20  3  0
  6 14  3  0
  6 15  3  0
  6 16  1  0
  6 19  2  0
  7  9  2  0
  7 10  4  0
  7 13  1  0
  7 16  3  0
  7 17  4  0
  7 18  1  0
  7 21  1  0
  8 10  4  0
  8 12  4  0
  8 15  4  0
  9 13  2  0
  9 14  3  0
  9 15  1  0
  9 16  3  0
  9 21  3  0
 10 12  3  0
 10 13  3  0
 10 18  4  0
 11 16  1  0
 11 18  1  0
 11 20  2  0
 12 13  1  0
 12 15  1  0
 12 16  4  0
 12 17  1  0
 12 19  1  0
 13 15  1  0
 13 17  3  0
 13 18  4  0
 13 19  2  0
 13 20  4  0
 13 21  3  0
 14 19  2  0
 15 18  3  0
 15 19  4  0
 16 18  2  0
 16 19  1  0
 17 18  2  0
 18 21  1  0
 19 20  3  0
M  END
$$$$

 Created by Python create_sdf_string function

 25 19  0  0  0  0  0  0  0  0999 V2000
   10.2716   -5.4068   18.1978 C   0  0  0  0  0  0  0  0  0  0  0  0
   10.5840   -3.6398   16.9989 C   0  0  0  0  0  0  0  0  0  0  0  0
   11.0241   -4.4087   19.4817 C   0  0  0  0  0  0  0  0  0  0  0  0
    8.7492   -4.8130   15.8487 C   0  0  0  0  0  0  0  0  0  0  0  0
    9.4557   -6.2791   17.4532 C   0  0  0  0  0  0  0  0  0  0  0  0
   11.3703   -5.3161   21.0453 C   0  0  0  0  0  0  0  0  0  0  0  0
   11.1700   -3.4262   19.0336 C   0  0  0  0  0  0  0  0  0  0  0  0
   10.9011   -4.0416   21.9761 C   0  0  0  0  0  0  0  0  0  0  0  0
    3.5707   -9.0963   17.0683 C   0  0  0  0  0  0  0  0  0  0  0  0
    7.2536   -8.2790   16.7385 C   0  0  0  0  0  0  0  0  0  0  0  0
    7.0128   -7.9056   18.2067 C   0  0  0  0  0  0  0  0  0  0  0  0
    4.9637   -7.9503   16.8409 C   0  0  0  0  0  0  0  0  0  0  0  0
   10.9681   -3.3974   17.3049 C   0  0  0  0  0  0  0  0  0  0  0  0
    7.6859   -5.9108   15.5241 C   0  0  0  0  0  0  0  0  0  0  0  0
    5.9146   -8.3688   16.4466 C   0  0  0  0  0  0  0  0  0  0  0  0
   10.2691   -6.4694   19.2594 C   0  0  0  0  0  0  0  0  0  0  0  0
    5.9542   -8.9618   15.8638 C   0  0  0  0  0  0  0  0  0  0  0  0
   11.6954   -3.3778   21.4627 N   0  0  0  0  0  0  0  0  0  0  0  0
    8.3074   -7.0692   16.5254 C   0  0  0  0  0  0  0  0  0  0  0  0
    4.6387   -9.4492   15.9737 C   0  0  0  0  0  0  0  0  0  0  0  0
    9.7532   -5.2721   17.2228 C   0  0  0  0  0  0  0  0  0  0  0  0
    3.8876   -8.3591   16.6196 C   0  0  0  0  0  0  0  0  0  0  0  0
   11.4950   -4.0816   21.3126 C   0  0  0  0  0  0  0  0  0  0  0  0
    8.6431   -8.1495   16.8155 C   0  0  0  0  0  0  0  0  0  0  0  0
    6.2365   -8.0531   18.2653 C   0  0  0  0  0  0  0  0  0  0  0  0
  1  3  4  0
  1 16  1  0
  1 21  4  0
  2 13  4  0
  3  7  4  0
  4 14  4  0
  6 23  4  0
  7 13  4  0
  8 18  4  0
  8 23  4  0
  9 22  1  0
 10 24  1  0
 11 25  1  0
 12 15  1  0
 12 22  1  0
 14 19  1  0
 15 17  1  0
 18 23  1  0
 19 24  1  0
M  END
$$$$

 Created by Python create_sdf_string function

 25 24  0  0  0  0  0  0  0  0999 V2000
   11.4673   -3.8611   15.6929 C   0  0  0  0  0  0  0  0  0  0  0  0
   10.5206   -4.5374   20.0977 C   0  0  0  0  0  0  0  0  0  0  0  0
    8.9449   -5.6189   17.3050 C   0  0  0  0  0  0  0  0  0  0  0  0
   11.6985   -6.4611   21.4360 S   0  0  0  0  0  0  0  0  0  0  0  0
   11.1774   -3.2887   18.5535 C   0  0  0  0  0  0  0  0  0  0  0  0
    2.8034   -8.8564   16.2091 Se  0  0  0  0  0  0  0  0  0  0  0  0
    7.3042   -7.9902   18.5398 C   0  0  0  0  0  0  0  0  0  0  0  0
    5.8409   -8.3235   16.9810 C   0  0  0  0  0  0  0  0  0  0  0  0
   10.6917   -3.1675   17.0995 C   0  0  0  0  0  0  0  0  0  0  0  0
    9.0126   -5.7319   15.9784 C   0  0  0  0  0  0  0  0  0  0  0  0
   11.1314   -6.2138   18.7713 C   0  0  0  0  0  0  0  0  0  0  0  0
    6.4080   -8.4057   16.5919 Cl  0  0  0  0  0  0  0  0  0  0  0  0
   11.7789   -2.8199   22.5081 N   0  0  0  0  0  0  0  0  0  0  0  0
    5.0392   -9.6205   16.1037 C   0  0  0  0  0  0  0  0  0  0  0  0
   10.9877   -5.5822   19.2063 He  0  0  0  0  0  0  0  0  0  0  0  0
    8.7919   -4.7615   15.6845 He  0  0  0  0  0  0  0  0  0  0  0  0
    9.9045   -3.7774   21.5862 He  0  0  0  0  0  0  0  0  0  0  0  0
    6.6707   -8.1561   16.9151 He  0  0  0  0  0  0  0  0  0  0  0  0
    6.4607   -7.9146   16.4949 He  0  0  0  0  0  0  0  0  0  0  0  0
    9.2930   -7.0785   16.8276 He  0  0  0  0  0  0  0  0  0  0  0  0
    9.3609   -3.7921   17.1591 He  0  0  0  0  0  0  0  0  0  0  0  0
    3.9059   -7.6030   16.2709 He  0  0  0  0  0  0  0  0  0  0  0  0
   11.3096   -3.5203   22.3333 He  0  0  0  0  0  0  0  0  0  0  0  0
    8.2095   -9.1606   16.1366 He  0  0  0  0  0  0  0  0  0  0  0  0
    7.0559   -8.2537   17.4082 He  0  0  0  0  0  0  0  0  0  0  0  0
  1  3  1  0
  1  6  3  0
  1  7  4  0
  1  9  4  0
  1 11  2  0
  2  8  3  0
  3 14  1  0
  4  9  2  0
  4 13  3  0
  5  6  3  0
  5  7  1  0
  5  9  4  0
  5 11  1  0
  5 12  1  0
  6  7  2  0
  6  9  1  0
  6 11  4  0
  6 14  4  0
  7 10  3  0
  8 10  4  0
  8 13  2  0
 10 12  3  0
 10 14  3  0
 12 14  3  0
M  END
$$$$

 Created by Python create_sdf_string function

 25 25  0  0  0  0  0  0  0  0999 V2000
   10.4112   -5.1910   19.2056 C   0  0  0  0  0  0  0  0  0  0  0  0
   10.7193   -3.6403   16.0552 C   0  0  0  0  0  0  0  0  0  0  0  0
   10.8913   -4.2904   20.0411 C   0  0  0  0  0  0  0  0  0  0  0  0
    8.6595   -5.0714   15.7996 C   0  0  0  0  0  0  0  0  0  0  0  0
    9.3744   -5.3199   17.1634 C   0  0  0  0  0  0  0  0  0  0  0  0
   11.1638   -5.3035   21.4143 C   0  0  0  0  0  0  0  0  0  0  0  0
   10.9931   -3.2962   18.4688 C   0  0  0  0  0  0  0  0  0  0  0  0
   10.4509   -3.5106   21.5123 C   0  0  0  0  0  0  0  0  0  0  0  0
    3.4699   -8.9327   16.1917 C   0  0  0  0  0  0  0  0  0  0  0  0
    7.5896   -8.2270   16.6564 C   0  0  0  0  0  0  0  0  0  0  0  0
    7.2604   -7.9690   18.0381 C   0  0  0  0  0  0  0  0  0  0  0  0
    5.1761   -8.0427   17.0364 C   0  0  0  0  0  0  0  0  0  0  0  0
   11.0595   -3.3228   17.1221 C   0  0  0  0  0  0  0  0  0  0  0  0
    8.6273   -6.0772   15.9301 C   0  0  0  0  0  0  0  0  0  0  0  0
    6.1928   -8.2685   16.7041 C   0  0  0  0  0  0  0  0  0  0  0  0
   10.3988   -5.6824   19.0031 C   0  0  0  0  0  0  0  0  0  0  0  0
    5.8554   -8.7002   16.2757 C   0  0  0  0  0  0  0  0  0  0  0  0
   11.0127   -3.3037   22.4975 N   0  0  0  0  0  0  0  0  0  0  0  0
    8.7218   -7.0454   16.8325 C   0  0  0  0  0  0  0  0  0  0  0  0
    4.7006   -9.4379   16.0231 C   0  0  0  0  0  0  0  0  0  0  0  0
    9.9938   -4.9825   17.6940 C   0  0  0  0  0  0  0  0  0  0  0  0
    3.7903   -7.9915   16.5617 C   0  0  0  0  0  0  0  0  0  0  0  0
   11.0334   -3.8623   22.1084 C   0  0  0  0  0  0  0  0  0  0  0  0
    8.0905   -8.5842   15.6641 C   0  0  0  0  0  0  0  0  0  0  0  0
    8.0629   -7.7049   17.8194 C   0  0  0  0  0  0  0  0  0  0  0  0
  1 16  4  0
  1 21  4  0
  2 13  4  0
  3  7  4  0
  4  5  4  0
  4 14  1  0
  5 21  4  0
  6 23  4  0
  7 13  4  0
  8 18  4  0
  8 23  4  0
  9 20  4  0
  9 22  4  0
 10 11  1  0
 10 19  1  0
 10 24  1  0
 11 15  1  0
 11 25  1  0
 12 15  1  0
 12 22  4  0
 14 19  1  0
 15 17  1  0
 16 21  4  0
 18 23  4  0
 19 25  1  0
M  END
$$$$

 Created by Python create_sdf_string function

 25 81  0  0  0  0  0  0  0  0999 V2000
   10.9402   -5.0904   20.7367 O   0  0  0  0  0  0  0  0  0  0  0  0
   10.3349   -3.6591   16.0790 P   0  0  0  0  0  0  0  0  0  0  0  0
   11.1679   -3.7397   19.4211 C   0  0  0  0  0  0  0  0  0  0  0  0
    8.4721   -3.7230   15.5582 S   0  0  0  0  0  0  0  0  0  0  0  0
   11.4116   -6.0247   21.6769 C   0  0  0  0  0  0  0  0  0  0  0  0
   12.3126   -2.9056   18.1381 C   0  0  0  0  0  0  0  0  0  0  0  0
   10.0901   -3.5321   21.6179 Br  0  0  0  0  0  0  0  0  0  0  0  0
    2.3479   -8.7549   15.4442 C   0  0  0  0  0  0  0  0  0  0  0  0
    7.1681   -8.2143   15.2718 C   0  0  0  0  0  0  0  0  0  0  0  0
    7.5867   -8.8805   17.8336 C   0  0  0  0  0  0  0  0  0  0  0  0
    5.2426   -7.0693   16.9333 C   0  0  0  0  0  0  0  0  0  0  0  0
   11.4104   -2.3865   16.5612 C   0  0  0  0  0  0  0  0  0  0  0  0
    8.7577   -6.0230   16.0683 F   0  0  0  0  0  0  0  0  0  0  0  0
    6.6340   -8.0201   16.2696 C   0  0  0  0  0  0  0  0  0  0  0  0
   10.7724   -5.5030   19.1592 C   0  0  0  0  0  0  0  0  0  0  0  0
    5.8312   -9.4808   16.6898 C   0  0  0  0  0  0  0  0  0  0  0  0
   11.2471   -3.0445   21.9238 N   0  0  0  0  0  0  0  0  0  0  0  0
    9.4466   -6.9960   16.1023 C   0  0  0  0  0  0  0  0  0  0  0  0
    4.2533   -9.5291   15.5935 C   0  0  0  0  0  0  0  0  0  0  0  0
    9.9340   -4.3330   17.8521 C   0  0  0  0  0  0  0  0  0  0  0  0
    3.3961   -7.1738   16.6757 C   0  0  0  0  0  0  0  0  0  0  0  0
   11.0939   -3.4155   21.1005 C   0  0  0  0  0  0  0  0  0  0  0  0
    7.5253   -7.6854   16.1140 C   0  0  0  0  0  0  0  0  0  0  0  0
    7.7212   -8.6574   17.8445 C   0  0  0  0  0  0  0  0  0  0  0  0
   11.0260   -5.9256   17.9519 He  0  0  0  0  0  0  0  0  0  0  0  0
  1  5  1  0
  1  8  3  0
  1  9  3  0
  1 11  2  0
  1 12  3  0
  1 19  4  0
  1 23  4  0
  2  4  2  0
  2  6  4  0
  2  8  2  0
  2 13  2  0
  2 22  1  0
  2 24  3  0
  3  6  2  0
  3  7  1  0
  3  8  2  0
  3  9  2  0
  3 10  3  0
  3 11  3  0
  3 14  2  0
  3 16  2  0
  3 17  2  0
  3 20  2  0
  3 21  1  0
  4  6  2  0
  4 11  2  0
  4 12  2  0
  4 13  1  0
  4 18  4  0
  4 22  4  0
  5 13  2  0
  5 15  1  0
  5 16  2  0
  5 17  3  0
  5 22  3  0
  6 11  4  0
  6 12  2  0
  6 13  4  0
  6 23  3  0
  7 10  3  0
  7 12  4  0
  7 17  4  0
  7 19  2  0
  7 20  2  0
  8 17  4  0
  8 19  1  0
  8 23  2  0
  9 12  4  0
  9 15  3  0
  9 17  4  0
  9 20  1  0
  9 21  4  0
 10 11  3  0
 10 16  3  0
 10 18  1  0
 10 19  4  0
 10 20  4  0
 11 13  4  0
 11 14  1  0
 11 15  4  0
 11 21  2  0
 12 16  1  0
 12 19  1  0
 12 20  1  0
 13 16  3  0
 13 18  1  0
 13 23  1  0
 13 24  4  0
 14 20  3  0
 15 16  4  0
 15 22  1  0
 16 17  2  0
 16 21  4  0
 18 20  3  0
 18 24  1  0
 19 24  2  0
 20 22  2  0
 21 22  3  0
 21 23  2  0
 22 23  1  0
 22 24  3  0
M  END
$$$$

 Created by Python create_sdf_string function

 25 20  0  0  0  0  0  0  0  0999 V2000
   11.0779   -5.3472   21.0490 O   0  0  0  0  0  0  0  0  0  0  0  0
   10.0347   -3.9413   16.3664 C   0  0  0  0  0  0  0  0  0  0  0  0
   11.0600   -3.7505   19.4874 C   0  0  0  0  0  0  0  0  0  0  0  0
    8.8511   -4.4248   15.7225 O   0  0  0  0  0  0  0  0  0  0  0  0
   10.3411   -5.6627   18.2628 C   0  0  0  0  0  0  0  0  0  0  0  0
   11.1645   -5.1916   21.9139 C   0  0  0  0  0  0  0  0  0  0  0  0
   11.2320   -2.9242   17.9156 C   0  0  0  0  0  0  0  0  0  0  0  0
   10.7739   -3.2711   21.9198 C   0  0  0  0  0  0  0  0  0  0  0  0
    3.1082   -8.8550   16.0183 C   0  0  0  0  0  0  0  0  0  0  0  0
    7.0863   -8.1023   15.5755 C   0  0  0  0  0  0  0  0  0  0  0  0
    7.6089   -8.3615   17.4124 C   0  0  0  0  0  0  0  0  0  0  0  0
    4.9194   -7.5145   16.3875 C   0  0  0  0  0  0  0  0  0  0  0  0
   11.2640   -2.9448   17.3392 C   0  0  0  0  0  0  0  0  0  0  0  0
    8.7250   -6.0322   16.2621 N   0  0  0  0  0  0  0  0  0  0  0  0
    6.0808   -7.9041   16.2909 C   0  0  0  0  0  0  0  0  0  0  0  0
   10.6743   -5.2404   19.2288 C   0  0  0  0  0  0  0  0  0  0  0  0
    5.4760   -9.4471   16.3122 C   0  0  0  0  0  0  0  0  0  0  0  0
   10.8251   -3.2708   22.1616 N   0  0  0  0  0  0  0  0  0  0  0  0
    8.7225   -6.8568   16.8889 C   0  0  0  0  0  0  0  0  0  0  0  0
    4.0998   -9.2836   15.8775 C   0  0  0  0  0  0  0  0  0  0  0  0
   10.2386   -4.7984   17.4125 C   0  0  0  0  0  0  0  0  0  0  0  0
    3.6933   -7.7136   16.5097 C   0  0  0  0  0  0  0  0  0  0  0  0
   11.0214   -3.6101   20.7879 C   0  0  0  0  0  0  0  0  0  0  0  0
    7.5297   -7.0647   15.7328 C   0  0  0  0  0  0  0  0  0  0  0  0
    8.4352   -8.1479   17.5192 C   0  0  0  0  0  0  0  0  0  0  0  0
  1  6  4  0
  2  4  2  0
  2 21  4  0
  3 16  4  0
  3 23  4  0
  4 14  1  0
  5 16  4  0
  5 21  4  0
  7 13  4  0
  8 18  4  0
  9 20  1  0
  9 22  1  0
 10 15  1  0
 10 24  1  0
 11 25  1  0
 12 15  1  0
 12 22  1  0
 14 19  1  0
 14 24  1  0
 19 25  1  0
M  END
$$$$

 Created by Python create_sdf_string function

 25 20  0  0  0  0  0  0  0  0999 V2000
   11.3422   -4.1583   19.8212 C   0  0  0  0  0  0  0  0  0  0  0  0
   10.4109   -4.8910   18.7848 C   0  0  0  0  0  0  0  0  0  0  0  0
   10.1854   -4.0526   18.5763 O   0  0  0  0  0  0  0  0  0  0  0  0
   10.9143   -3.1481   20.9419 C   0  0  0  0  0  0  0  0  0  0  0  0
    8.2612   -8.1798   15.3588 C   0  0  0  0  0  0  0  0  0  0  0  0
    8.0331   -8.7081   17.3857 Cl  0  0  0  0  0  0  0  0  0  0  0  0
    9.0408   -5.9264   15.2222 I   0  0  0  0  0  0  0  0  0  0  0  0
    6.6120   -8.4364   15.8305 C   0  0  0  0  0  0  0  0  0  0  0  0
   10.3383   -2.1072   21.5201 F   0  0  0  0  0  0  0  0  0  0  0  0
    9.0092   -6.8425   16.8611 Cl  0  0  0  0  0  0  0  0  0  0  0  0
    4.7995   -9.8386   15.0026 C   0  0  0  0  0  0  0  0  0  0  0  0
   10.1954   -2.2629   20.2643 C   0  0  0  0  0  0  0  0  0  0  0  0
    6.2429   -6.6184   15.6752 N   0  0  0  0  0  0  0  0  0  0  0  0
   10.3615   -4.2033   20.9318 He  0  0  0  0  0  0  0  0  0  0  0  0
   10.2501   -3.0142   17.1807 He  0  0  0  0  0  0  0  0  0  0  0  0
    9.1999   -3.9388   15.5748 He  0  0  0  0  0  0  0  0  0  0  0  0
   11.0741   -4.1912   21.1247 He  0  0  0  0  0  0  0  0  0  0  0  0
    2.4392   -8.4439   15.9781 He  0  0  0  0  0  0  0  0  0  0  0  0
    4.4941   -7.4859   17.4827 He  0  0  0  0  0  0  0  0  0  0  0  0
   11.5952   -2.5588   17.0718 He  0  0  0  0  0  0  0  0  0  0  0  0
   10.5481   -4.7323   19.2266 He  0  0  0  0  0  0  0  0  0  0  0  0
    6.1685   -8.6813   17.3169 He  0  0  0  0  0  0  0  0  0  0  0  0
   11.6194   -3.8131   17.0706 He  0  0  0  0  0  0  0  0  0  0  0  0
    3.1164   -8.4992   17.7694 He  0  0  0  0  0  0  0  0  0  0  0  0
    7.9719   -8.9555   17.1981 He  0  0  0  0  0  0  0  0  0  0  0  0
  1  2  2  0
  1  3  2  0
  1 12  4  0
  2  4  4  0
  2  8  1  0
  3  7  2  0
  3  8  1  0
  3 13  4  0
  4  9  4  0
  5  6  1  0
  5  8  1  0
  5  9  4  0
  5 10  3  0
  5 13  1  0
  6 10  3  0
  6 12  4  0
  6 13  3  0
  8 11  2  0
  9 12  4  0
 10 13  4  0
M  END
$$$$

 Created by Python create_sdf_string function

 25 27  0  0  0  0  0  0  0  0999 V2000
   10.8335   -4.9385   20.8921 C   0  0  0  0  0  0  0  0  0  0  0  0
   10.2513   -4.1131   16.7146 C   0  0  0  0  0  0  0  0  0  0  0  0
   10.7889   -3.9894   19.9838 C   0  0  0  0  0  0  0  0  0  0  0  0
    9.1221   -4.3283   15.9320 C   0  0  0  0  0  0  0  0  0  0  0  0
   10.3454   -4.9750   18.1147 C   0  0  0  0  0  0  0  0  0  0  0  0
   10.8588   -4.5018   22.1020 C   0  0  0  0  0  0  0  0  0  0  0  0
   10.4584   -4.0527   18.2456 C   0  0  0  0  0  0  0  0  0  0  0  0
   10.8611   -3.2528   22.3186 C   0  0  0  0  0  0  0  0  0  0  0  0
    3.7387   -8.9846   16.0395 C   0  0  0  0  0  0  0  0  0  0  0  0
    7.5996   -8.0065   15.6024 C   0  0  0  0  0  0  0  0  0  0  0  0
    7.8762   -8.2528   17.4402 C   0  0  0  0  0  0  0  0  0  0  0  0
    4.7972   -8.0576   17.6581 C   0  0  0  0  0  0  0  0  0  0  0  0
   11.4071   -2.8458   17.3328 N   0  0  0  0  0  0  0  0  0  0  0  0
    8.3370   -5.8135   15.8937 C   0  0  0  0  0  0  0  0  0  0  0  0
    6.0520   -8.5262   15.9497 C   0  0  0  0  0  0  0  0  0  0  0  0
   10.1482   -5.6857   18.4671 C   0  0  0  0  0  0  0  0  0  0  0  0
    5.8956   -8.2626   17.1764 C   0  0  0  0  0  0  0  0  0  0  0  0
   11.0132   -2.4314   21.6735 C   0  0  0  0  0  0  0  0  0  0  0  0
    8.9048   -6.6712   17.1306 N   0  0  0  0  0  0  0  0  0  0  0  0
    4.9789   -8.9713   15.3177 C   0  0  0  0  0  0  0  0  0  0  0  0
   11.2467   -3.8627   16.6823 C   0  0  0  0  0  0  0  0  0  0  0  0
    3.6366   -8.5355   16.9612 C   0  0  0  0  0  0  0  0  0  0  0  0
   11.0091   -2.8655   20.3249 C   0  0  0  0  0  0  0  0  0  0  0  0
    7.1835   -6.6063   15.5654 N   0  0  0  0  0  0  0  0  0  0  0  0
    8.3753   -8.0302   17.2392 C   0  0  0  0  0  0  0  0  0  0  0  0
  1  3  4  0
  1  6  4  0
  2  4  1  0
  2 21  4  0
  3 23  4  0
  4 14  1  0
  5 16  4  0
  6  8  4  0
  7 13  4  0
  8 18  4  0
  9 20  4  0
  9 22  4  0
 10 11  1  0
 10 15  1  0
 10 24  1  0
 10 25  1  0
 11 17  1  0
 11 25  1  0
 12 17  4  0
 12 22  4  0
 14 19  1  0
 14 24  1  0
 15 17  4  0
 15 20  4  0
 16 19  1  0
 18 23  4  0
 19 25  1  0
M  END
$$$$

 Created by Python create_sdf_string function

 25 38  0  0  0  0  0  0  0  0999 V2000
    9.7290   -4.7675   19.1494 C   0  0  0  0  0  0  0  0  0  0  0  0
    9.3585   -5.2289   15.2446 C   0  0  0  0  0  0  0  0  0  0  0  0
   10.3270   -5.2629   22.0658 Cl  0  0  0  0  0  0  0  0  0  0  0  0
   10.8903   -4.2789   18.5905 N   0  0  0  0  0  0  0  0  0  0  0  0
    4.0576   -8.4820   15.9226 C   0  0  0  0  0  0  0  0  0  0  0  0
    6.7597   -8.0688   15.4092 C   0  0  0  0  0  0  0  0  0  0  0  0
    8.0770   -8.5044   17.5750 S   0  0  0  0  0  0  0  0  0  0  0  0
    4.1645   -8.2679   17.1579 C   0  0  0  0  0  0  0  0  0  0  0  0
   11.6193   -2.9682   17.1509 N   0  0  0  0  0  0  0  0  0  0  0  0
    7.9299   -5.8703   15.7836 C   0  0  0  0  0  0  0  0  0  0  0  0
    6.3645   -8.8082   17.1908 C   0  0  0  0  0  0  0  0  0  0  0  0
    9.5788   -5.5228   18.4777 C   0  0  0  0  0  0  0  0  0  0  0  0
    4.6157   -8.0892   17.1590 F   0  0  0  0  0  0  0  0  0  0  0  0
   10.0312   -6.6620   17.7710 N   0  0  0  0  0  0  0  0  0  0  0  0
    4.7253   -8.4470   15.1453 C   0  0  0  0  0  0  0  0  0  0  0  0
   12.8598   -5.1653   17.3871 P   0  0  0  0  0  0  0  0  0  0  0  0
    3.6687   -7.9781   17.2781 C   0  0  0  0  0  0  0  0  0  0  0  0
   10.6924   -2.7421   20.3187 C   0  0  0  0  0  0  0  0  0  0  0  0
   10.0011   -4.9013   21.3327 He  0  0  0  0  0  0  0  0  0  0  0  0
   10.6871   -4.2163   17.9608 He  0  0  0  0  0  0  0  0  0  0  0  0
   10.4692   -5.2044   17.3382 He  0  0  0  0  0  0  0  0  0  0  0  0
   10.9636   -3.1230   21.6309 He  0  0  0  0  0  0  0  0  0  0  0  0
   10.1162   -3.2165   21.9702 He  0  0  0  0  0  0  0  0  0  0  0  0
    6.1958   -6.5342   14.4506 He  0  0  0  0  0  0  0  0  0  0  0  0
    8.1983   -8.3188   16.3845 He  0  0  0  0  0  0  0  0  0  0  0  0
  1  4  4  0
  1 15  2  0
  2  6  3  0
  2 12  4  0
  2 13  3  0
  2 16  3  0
  3  9  1  0
  4  9  2  0
  4 12  2  0
  4 17  2  0
  5  6  3  0
  5  7  3  0
  5  9  1  0
  5 15  4  0
  5 17  4  0
  5 18  4  0
  6  7  1  0
  6  9  3  0
  6 11  2  0
  6 13  1  0
  6 16  4  0
  7 10  4  0
  7 13  1  0
  7 16  2  0
  7 18  2  0
  8 18  1  0
  9 11  2  0
  9 15  4  0
 10 14  1  0
 10 17  2  0
 11 12  3  0
 11 13  4  0
 11 17  3  0
 11 18  4  0
 12 18  1  0
 15 16  1  0
 15 17  1  0
 16 18  3  0
M  END
$$$$

 Created by Python create_sdf_string function

 25 23  0  0  0  0  0  0  0  0999 V2000
   10.4375   -5.4759   20.8507 C   0  0  0  0  0  0  0  0  0  0  0  0
   11.2752   -3.8462   17.5941 C   0  0  0  0  0  0  0  0  0  0  0  0
   10.3707   -4.9177   19.6446 C   0  0  0  0  0  0  0  0  0  0  0  0
    8.8240   -5.2369   16.0737 C   0  0  0  0  0  0  0  0  0  0  0  0
   10.4472   -5.1258   17.3108 C   0  0  0  0  0  0  0  0  0  0  0  0
   10.7343   -4.8784   21.8619 C   0  0  0  0  0  0  0  0  0  0  0  0
   10.8500   -3.8803   19.1078 C   0  0  0  0  0  0  0  0  0  0  0  0
   10.7544   -3.4283   21.7069 C   0  0  0  0  0  0  0  0  0  0  0  0
    3.6598   -8.2351   15.8128 C   0  0  0  0  0  0  0  0  0  0  0  0
    7.2105   -7.8941   16.0005 C   0  0  0  0  0  0  0  0  0  0  0  0
    8.4894   -7.8837   17.5222 S   0  0  0  0  0  0  0  0  0  0  0  0
    4.3018   -8.7371   17.4941 C   0  0  0  0  0  0  0  0  0  0  0  0
   11.4718   -2.9719   16.9597 N   0  0  0  0  0  0  0  0  0  0  0  0
    7.9839   -5.9774   15.7638 C   0  0  0  0  0  0  0  0  0  0  0  0
    5.8374   -8.4356   17.4666 C   0  0  0  0  0  0  0  0  0  0  0  0
    9.6435   -5.8696   17.9124 C   0  0  0  0  0  0  0  0  0  0  0  0
    5.6036   -8.1974   16.5480 C   0  0  0  0  0  0  0  0  0  0  0  0
   10.6546   -2.8738   22.5356 O   0  0  0  0  0  0  0  0  0  0  0  0
    9.3591   -6.6731   17.6360 N   0  0  0  0  0  0  0  0  0  0  0  0
    4.8721   -7.8483   15.3522 C   0  0  0  0  0  0  0  0  0  0  0  0
   12.3934   -4.7297   17.0340 O   0  0  0  0  0  0  0  0  0  0  0  0
    3.2776   -8.6561   16.8369 C   0  0  0  0  0  0  0  0  0  0  0  0
   10.9333   -3.0950   20.3733 C   0  0  0  0  0  0  0  0  0  0  0  0
    7.0087   -6.7717   14.9585 C   0  0  0  0  0  0  0  0  0  0  0  0
    8.1672   -8.0265   16.3300 C   0  0  0  0  0  0  0  0  0  0  0  0
  1  3  4  0
  1  6  4  0
  2  7  4  0
  2 13  1  0
  3  7  4  0
  4 14  4  0
  5 16  4  0
  6  8  4  0
  7 23  4  0
  8 18  1  0
  8 23  4  0
  9 20  4  0
  9 22  4  0
 10 17  1  0
 10 25  1  0
 11 19  4  0
 11 25  1  0
 12 15  4  0
 12 22  4  0
 14 24  4  0
 15 17  4  0
 16 19  4  0
 17 20  4  0
M  END
$$$$

 Created by Python create_sdf_string function

 25 30  0  0  0  0  0  0  0  0999 V2000
   10.7531   -4.4966   16.6440 B   0  0  0  0  0  0  0  0  0  0  0  0
    8.5174   -5.8972   16.8288 C   0  0  0  0  0  0  0  0  0  0  0  0
   11.1168   -4.1262   17.0109 O   0  0  0  0  0  0  0  0  0  0  0  0
   11.4629   -4.5693   20.8729 C   0  0  0  0  0  0  0  0  0  0  0  0
   11.1663   -3.2128   18.7710 O   0  0  0  0  0  0  0  0  0  0  0  0
   11.4403   -2.8901   21.7683 C   0  0  0  0  0  0  0  0  0  0  0  0
    4.5190   -8.7973   14.8411 C   0  0  0  0  0  0  0  0  0  0  0  0
    4.7102   -8.2688   17.4397 F   0  0  0  0  0  0  0  0  0  0  0  0
    8.2433   -6.1444   15.3118 C   0  0  0  0  0  0  0  0  0  0  0  0
    6.3119   -8.7732   17.9397 C   0  0  0  0  0  0  0  0  0  0  0  0
   10.0986   -2.9790   21.8426 O   0  0  0  0  0  0  0  0  0  0  0  0
    9.5021   -6.2131   17.2226 N   0  0  0  0  0  0  0  0  0  0  0  0
   12.3389   -5.4822   16.8784 O   0  0  0  0  0  0  0  0  0  0  0  0
    7.7641   -8.0217   15.0347 C   0  0  0  0  0  0  0  0  0  0  0  0
    8.6540   -7.4460   16.4055 C   0  0  0  0  0  0  0  0  0  0  0  0
   10.4798   -5.5503   21.9149 He  0  0  0  0  0  0  0  0  0  0  0  0
   10.4395   -4.8144   19.5182 He  0  0  0  0  0  0  0  0  0  0  0  0
    7.2465   -7.9868   17.0725 He  0  0  0  0  0  0  0  0  0  0  0  0
    8.6471   -8.5616   17.7566 He  0  0  0  0  0  0  0  0  0  0  0  0
   11.4160   -2.1693   16.1344 He  0  0  0  0  0  0  0  0  0  0  0  0
   10.1977   -5.4140   18.0430 He  0  0  0  0  0  0  0  0  0  0  0  0
    5.6670   -8.5292   16.9679 He  0  0  0  0  0  0  0  0  0  0  0  0
    4.6856   -7.7101   13.7606 He  0  0  0  0  0  0  0  0  0  0  0  0
    3.7903   -7.8603   16.7927 He  0  0  0  0  0  0  0  0  0  0  0  0
   10.0520   -2.6536   21.0125 He  0  0  0  0  0  0  0  0  0  0  0  0
  1  3  1  0
  1  5  2  0
  1  6  2  0
  1 11  2  0
  1 14  2  0
  2  9  4  0
  3  4  4  0
  3  5  2  0
  3  6  1  0
  4 15  1  0
  5  7  3  0
  5 11  3  0
  5 13  4  0
  5 14  3  0
  6  7  3  0
  6  9  4  0
  6 10  1  0
  6 11  3  0
  6 15  1  0
  7  9  3  0
  7 12  4  0
  7 13  2  0
  8 10  4  0
  8 11  4  0
  8 15  2  0
  9 14  4  0
  9 15  2  0
 10 13  2  0
 11 14  3  0
 12 14  4  0
M  END
$$$$

 Created by Python create_sdf_string function

 25 20  0  0  0  0  0  0  0  0999 V2000
   10.9371   -5.1200   20.9274 C   0  0  0  0  0  0  0  0  0  0  0  0
   10.9579   -3.8733   16.6405 C   0  0  0  0  0  0  0  0  0  0  0  0
   10.6696   -4.5253   19.7152 C   0  0  0  0  0  0  0  0  0  0  0  0
    8.6497   -5.5566   16.2471 C   0  0  0  0  0  0  0  0  0  0  0  0
   11.1735   -3.9811   17.2362 S   0  0  0  0  0  0  0  0  0  0  0  0
   11.5341   -4.6199   21.6892 C   0  0  0  0  0  0  0  0  0  0  0  0
   10.8243   -3.5532   19.0413 C   0  0  0  0  0  0  0  0  0  0  0  0
   11.0262   -3.3105   22.1952 C   0  0  0  0  0  0  0  0  0  0  0  0
    4.0427   -8.2334   15.4467 C   0  0  0  0  0  0  0  0  0  0  0  0
    7.5589   -7.8628   16.5193 C   0  0  0  0  0  0  0  0  0  0  0  0
    8.8054   -7.7707   17.8738 C   0  0  0  0  0  0  0  0  0  0  0  0
    4.2993   -8.7041   17.5703 C   0  0  0  0  0  0  0  0  0  0  0  0
   11.5682   -2.9456   16.4663 O   0  0  0  0  0  0  0  0  0  0  0  0
    8.3161   -6.2699   15.5175 C   0  0  0  0  0  0  0  0  0  0  0  0
    5.7472   -8.4519   17.6425 C   0  0  0  0  0  0  0  0  0  0  0  0
   10.1936   -5.3693   17.8467 C   0  0  0  0  0  0  0  0  0  0  0  0
    6.1419   -8.2630   16.3818 C   0  0  0  0  0  0  0  0  0  0  0  0
   10.5640   -2.9271   22.3614 O   0  0  0  0  0  0  0  0  0  0  0  0
    9.4654   -6.3297   17.6804 C   0  0  0  0  0  0  0  0  0  0  0  0
    5.2895   -8.1562   15.1781 C   0  0  0  0  0  0  0  0  0  0  0  0
   12.2949   -5.0615   17.3243 O   0  0  0  0  0  0  0  0  0  0  0  0
    3.5666   -8.4629   16.6730 C   0  0  0  0  0  0  0  0  0  0  0  0
   10.4312   -3.4032   20.8944 C   0  0  0  0  0  0  0  0  0  0  0  0
    8.0979   -7.5627   15.1920 C   0  0  0  0  0  0  0  0  0  0  0  0
    8.3255   -7.6704   16.9313 C   0  0  0  0  0  0  0  0  0  0  0  0
  1  3  4  0
  1  6  4  0
  2  5  1  0
  2 13  1  0
  3  7  4  0
  4 14  4  0
  6  8  4  0
  8 18  1  0
  9 20  4  0
  9 22  4  0
 10 17  1  0
 10 25  4  0
 11 19  4  0
 11 25  4  0
 12 15  4  0
 12 22  4  0
 14 24  4  0
 15 17  4  0
 16 19  1  0
 17 20  4  0
M  END
$$$$

 Created by Python create_sdf_string function

 25 41  0  0  0  0  0  0  0  0999 V2000
   11.3191   -4.4480   20.7719 C   0  0  0  0  0  0  0  0  0  0  0  0
   10.5370   -3.5141   16.8546 C   0  0  0  0  0  0  0  0  0  0  0  0
    8.8176   -5.2512   14.9527 C   0  0  0  0  0  0  0  0  0  0  0  0
   11.6426   -4.2807   21.7226 C   0  0  0  0  0  0  0  0  0  0  0  0
   10.8978   -4.0526   19.0218 F   0  0  0  0  0  0  0  0  0  0  0  0
   11.1292   -2.3021   22.9028 C   0  0  0  0  0  0  0  0  0  0  0  0
    5.2065   -8.9709   15.0714 S   0  0  0  0  0  0  0  0  0  0  0  0
    6.9815   -8.5883   17.1367 C   0  0  0  0  0  0  0  0  0  0  0  0
    8.4910   -8.5105   17.8036 F   0  0  0  0  0  0  0  0  0  0  0  0
   12.4909   -2.6119   17.4788 O   0  0  0  0  0  0  0  0  0  0  0  0
    8.2458   -6.7884   15.2986 C   0  0  0  0  0  0  0  0  0  0  0  0
    5.4404   -8.7006   16.4967 C   0  0  0  0  0  0  0  0  0  0  0  0
    6.4902   -8.6907   16.4834 C   0  0  0  0  0  0  0  0  0  0  0  0
    8.4057   -5.4030   17.9369 O   0  0  0  0  0  0  0  0  0  0  0  0
    5.5785   -7.2718   15.6411 S   0  0  0  0  0  0  0  0  0  0  0  0
   10.5537   -3.3874   20.7801 C   0  0  0  0  0  0  0  0  0  0  0  0
    8.1322   -6.6178   15.2307 C   0  0  0  0  0  0  0  0  0  0  0  0
    7.9781   -8.3706   17.6387 I   0  0  0  0  0  0  0  0  0  0  0  0
   10.3829   -3.9544   19.8138 He  0  0  0  0  0  0  0  0  0  0  0  0
   11.5874   -2.7136   16.3260 He  0  0  0  0  0  0  0  0  0  0  0  0
    4.2008   -7.7396   17.0776 He  0  0  0  0  0  0  0  0  0  0  0  0
    9.9901   -4.8078   18.4329 He  0  0  0  0  0  0  0  0  0  0  0  0
    9.6252   -2.8653   22.3706 He  0  0  0  0  0  0  0  0  0  0  0  0
   13.1022   -6.0444   17.2886 He  0  0  0  0  0  0  0  0  0  0  0  0
    4.8330   -8.7131   15.7248 He  0  0  0  0  0  0  0  0  0  0  0  0
  1  2  3  0
  1  4  1  0
  2  4  1  0
  2 10  3  0
  2 11  2  0
  2 18  2  0
  3  6  3  0
  3  9  1  0
  3 12  1  0
  3 13  4  0
  3 16  3  0
  4  6  4  0
  4 12  3  0
  4 13  2  0
  4 14  4  0
  4 16  1  0
  5 14  4  0
  5 15  1  0
  5 18  2  0
  6  9  4  0
  6 12  2  0
  6 16  1  0
  6 18  3  0
  7 11  3  0
  7 16  2  0
  8  9  2  0
  8 11  2  0
  8 16  2  0
  8 18  4  0
  9 10  4  0
  9 14  4  0
  9 18  2  0
 10 13  2  0
 10 16  3  0
 11 15  2  0
 11 16  4  0
 12 13  4  0
 12 16  1  0
 13 15  4  0
 14 15  3  0
 17 18  2  0
M  END
$$$$

 Created by Python create_sdf_string function

 25 20  0  0  0  0  0  0  0  0999 V2000
   11.2959   -4.6419   20.8774 C   0  0  0  0  0  0  0  0  0  0  0  0
   10.9930   -3.8129   17.0171 C   0  0  0  0  0  0  0  0  0  0  0  0
   10.8172   -4.1412   19.8701 C   0  0  0  0  0  0  0  0  0  0  0  0
    8.8817   -5.2048   15.9823 C   0  0  0  0  0  0  0  0  0  0  0  0
   11.3484   -3.3956   16.3891 C   0  0  0  0  0  0  0  0  0  0  0  0
   11.4661   -4.4945   22.0493 C   0  0  0  0  0  0  0  0  0  0  0  0
   10.7216   -4.1002   18.9008 C   0  0  0  0  0  0  0  0  0  0  0  0
   10.9484   -2.8721   22.4864 C   0  0  0  0  0  0  0  0  0  0  0  0
    4.7306   -8.1613   15.0674 C   0  0  0  0  0  0  0  0  0  0  0  0
    7.6970   -8.2320   17.2224 C   0  0  0  0  0  0  0  0  0  0  0  0
    8.6693   -7.4257   17.6910 C   0  0  0  0  0  0  0  0  0  0  0  0
    4.1618   -8.6495   17.0261 C   0  0  0  0  0  0  0  0  0  0  0  0
   11.8708   -2.6113   17.3115 O   0  0  0  0  0  0  0  0  0  0  0  0
    8.1374   -6.4130   15.8874 C   0  0  0  0  0  0  0  0  0  0  0  0
    5.3758   -8.4828   17.3938 C   0  0  0  0  0  0  0  0  0  0  0  0
   10.0732   -5.2189   18.2797 C   0  0  0  0  0  0  0  0  0  0  0  0
    6.3603   -8.1519   16.6693 C   0  0  0  0  0  0  0  0  0  0  0  0
   10.4079   -2.8939   22.6399 C   0  0  0  0  0  0  0  0  0  0  0  0
    9.3823   -5.6881   17.7860 C   0  0  0  0  0  0  0  0  0  0  0  0
    5.9658   -7.8169   15.5291 C   0  0  0  0  0  0  0  0  0  0  0  0
   12.1903   -4.9843   17.6529 C   0  0  0  0  0  0  0  0  0  0  0  0
    3.9974   -8.5225   15.8977 C   0  0  0  0  0  0  0  0  0  0  0  0
   10.9083   -3.1409   21.1034 C   0  0  0  0  0  0  0  0  0  0  0  0
    8.0125   -6.5343   15.6102 C   0  0  0  0  0  0  0  0  0  0  0  0
    8.3828   -8.0019   17.5859 C   0  0  0  0  0  0  0  0  0  0  0  0
  1  3  4  0
  1  6  1  0
  2  5  1  0
  2 21  4  0
  3  7  1  0
  4 14  4  0
  8 18  1  0
  8 23  1  0
  9 20  4  0
  9 22  4  0
 10 17  4  0
 10 25  4  0
 11 19  4  0
 11 25  4  0
 12 15  4  0
 12 22  4  0
 14 24  4  0
 15 17  4  0
 16 19  4  0
 17 20  4  0
M  END
$$$$

 Created by Python create_sdf_string function

 25 62  0  0  0  0  0  0  0  0999 V2000
   12.5228   -4.2159   21.4462 C   0  0  0  0  0  0  0  0  0  0  0  0
   11.4878   -3.8529   17.7519 C   0  0  0  0  0  0  0  0  0  0  0  0
   11.1818   -3.2282   19.2068 C   0  0  0  0  0  0  0  0  0  0  0  0
    8.9108   -4.1847   16.3288 P   0  0  0  0  0  0  0  0  0  0  0  0
   11.4835   -2.5309   15.7819 C   0  0  0  0  0  0  0  0  0  0  0  0
   11.3094   -3.2662   21.7481 C   0  0  0  0  0  0  0  0  0  0  0  0
   10.9254   -4.2057   18.6705 C   0  0  0  0  0  0  0  0  0  0  0  0
   11.2979   -2.6216   23.0922 C   0  0  0  0  0  0  0  0  0  0  0  0
    5.1525   -9.5614   14.9486 O   0  0  0  0  0  0  0  0  0  0  0  0
    8.7812   -7.2913   17.5134 C   0  0  0  0  0  0  0  0  0  0  0  0
    4.6878   -8.4228   17.8971 O   0  0  0  0  0  0  0  0  0  0  0  0
   12.0119   -2.2927   17.4444 O   0  0  0  0  0  0  0  0  0  0  0  0
    8.3647   -6.1678   15.5727 O   0  0  0  0  0  0  0  0  0  0  0  0
    5.5234   -8.7839   17.2545 C   0  0  0  0  0  0  0  0  0  0  0  0
    9.2091   -5.0230   19.1597 C   0  0  0  0  0  0  0  0  0  0  0  0
    6.8175   -8.3136   17.3263 C   0  0  0  0  0  0  0  0  0  0  0  0
   10.5285   -2.5657   22.9358 C   0  0  0  0  0  0  0  0  0  0  0  0
    8.8610   -6.1868   18.6621 C   0  0  0  0  0  0  0  0  0  0  0  0
    5.8940   -7.6031   15.8350 C   0  0  0  0  0  0  0  0  0  0  0  0
   12.5470   -4.7424   18.3555 C   0  0  0  0  0  0  0  0  0  0  0  0
   11.7839   -3.1664   21.6484 C   0  0  0  0  0  0  0  0  0  0  0  0
    8.9263   -6.2759   16.0402 C   0  0  0  0  0  0  0  0  0  0  0  0
    7.5067   -8.0710   16.9830 He  0  0  0  0  0  0  0  0  0  0  0  0
    3.9912   -9.1936   16.3707 He  0  0  0  0  0  0  0  0  0  0  0  0
    8.2803   -8.8752   17.2256 He  0  0  0  0  0  0  0  0  0  0  0  0
  1  3  4  0
  1  7  4  0
  1  8  1  0
  1 11  4  0
  1 13  1  0
  1 15  1  0
  1 17  2  0
  1 20  1  0
  2  5  2  0
  2 12  1  0
  2 13  2  0
  2 14  3  0
  2 21  4  0
  3  7  1  0
  3  9  1  0
  3 18  4  0
  3 20  1  0
  4  6  3  0
  4  8  3  0
  4 15  1  0
  6  8  3  0
  6 15  2  0
  6 20  4  0
  7  8  4  0
  7 14  2  0
  7 17  2  0
  7 18  3  0
  8 16  3  0
  8 17  1  0
  8 21  1  0
  9 11  1  0
  9 15  4  0
  9 17  2  0
  9 18  4  0
  9 19  4  0
  9 22  3  0
 10 11  3  0
 10 12  3  0
 10 13  4  0
 10 17  3  0
 10 18  4  0
 10 22  1  0
 11 14  4  0
 11 16  2  0
 12 13  3  0
 12 16  2  0
 12 20  4  0
 12 21  3  0
 13 19  4  0
 14 15  1  0
 14 16  2  0
 15 18  4  0
 16 19  1  0
 16 20  1  0
 16 22  1  0
 17 18  1  0
 18 19  2  0
 18 20  3  0
 18 22  1  0
 19 21  1  0
 20 22  1  0
 21 22  3  0
M  END
$$$$

 Created by Python create_sdf_string function

 25 24  0  0  0  0  0  0  0  0999 V2000
   12.2876   -4.4754   21.2293 C   0  0  0  0  0  0  0  0  0  0  0  0
   11.3231   -3.5534   17.2243 C   0  0  0  0  0  0  0  0  0  0  0  0
   11.4583   -4.0666   19.8720 C   0  0  0  0  0  0  0  0  0  0  0  0
    9.4576   -4.7129   16.6424 N   0  0  0  0  0  0  0  0  0  0  0  0
   11.5620   -3.4368   15.9376 C   0  0  0  0  0  0  0  0  0  0  0  0
   10.9251   -3.6848   21.6027 C   0  0  0  0  0  0  0  0  0  0  0  0
   10.7408   -4.2638   19.3767 C   0  0  0  0  0  0  0  0  0  0  0  0
   11.1612   -3.1788   22.5902 C   0  0  0  0  0  0  0  0  0  0  0  0
    4.7202   -8.7325   15.3588 C   0  0  0  0  0  0  0  0  0  0  0  0
    7.7165   -8.3407   16.9731 N   0  0  0  0  0  0  0  0  0  0  0  0
    8.6998   -6.8691   17.4637 C   0  0  0  0  0  0  0  0  0  0  0  0
    4.3807   -8.9687   17.5768 C   0  0  0  0  0  0  0  0  0  0  0  0
   11.6867   -2.7907   17.4949 O   0  0  0  0  0  0  0  0  0  0  0  0
    8.0467   -6.0724   15.6885 C   0  0  0  0  0  0  0  0  0  0  0  0
    5.6432   -8.6233   17.8892 C   0  0  0  0  0  0  0  0  0  0  0  0
    9.9388   -4.9893   18.2325 C   0  0  0  0  0  0  0  0  0  0  0  0
    6.5301   -8.3473   16.8959 C   0  0  0  0  0  0  0  0  0  0  0  0
   10.4903   -2.6410   23.4100 C   0  0  0  0  0  0  0  0  0  0  0  0
    9.3788   -6.0644   18.4997 C   0  0  0  0  0  0  0  0  0  0  0  0
    6.0186   -8.2451   15.6283 C   0  0  0  0  0  0  0  0  0  0  0  0
   12.2356   -4.4199   19.0793 C   0  0  0  0  0  0  0  0  0  0  0  0
    3.9995   -9.0219   16.4166 C   0  0  0  0  0  0  0  0  0  0  0  0
   11.4632   -3.2746   21.7669 C   0  0  0  0  0  0  0  0  0  0  0  0
    8.6589   -5.9677   16.4615 C   0  0  0  0  0  0  0  0  0  0  0  0
    8.4892   -8.4765   17.3030 C   0  0  0  0  0  0  0  0  0  0  0  0
  1  3  4  0
  2  5  2  0
  2 13  1  0
  3  7  1  0
  3 21  1  0
  4 16  1  0
  4 24  4  0
  6  8  4  0
  7 16  1  0
  8 18  1  0
  8 23  1  0
  9 20  4  0
  9 22  4  0
 10 17  1  0
 10 25  4  0
 11 19  4  0
 11 24  1  0
 11 25  4  0
 12 15  4  0
 12 22  4  0
 14 24  4  0
 15 17  4  0
 16 19  4  0
 17 20  4  0
M  END
$$$$

 Created by Python create_sdf_string function

 25 44  0  0  0  0  0  0  0  0999 V2000
   13.3178   -4.3937   21.1176 C   0  0  0  0  0  0  0  0  0  0  0  0
   12.3474   -3.2771   17.9024 C   0  0  0  0  0  0  0  0  0  0  0  0
   10.5634   -4.0204   19.9891 C   0  0  0  0  0  0  0  0  0  0  0  0
   10.2160   -3.5761   20.8785 Se  0  0  0  0  0  0  0  0  0  0  0  0
   11.4208   -3.3116   19.4895 C   0  0  0  0  0  0  0  0  0  0  0  0
   11.5143   -3.4987   22.7664 C   0  0  0  0  0  0  0  0  0  0  0  0
    5.2052   -8.8881   15.3226 C   0  0  0  0  0  0  0  0  0  0  0  0
    7.4118   -7.8425   17.6958 N   0  0  0  0  0  0  0  0  0  0  0  0
    8.8196   -6.4101   17.9099 P   0  0  0  0  0  0  0  0  0  0  0  0
    4.5191   -9.2809   17.7597 C   0  0  0  0  0  0  0  0  0  0  0  0
   11.4745   -3.6517   17.4293 F   0  0  0  0  0  0  0  0  0  0  0  0
    7.7038   -6.6020   16.1829 C   0  0  0  0  0  0  0  0  0  0  0  0
    5.5924   -8.5467   18.4436 C   0  0  0  0  0  0  0  0  0  0  0  0
    9.9839   -4.7369   19.0043 Cl  0  0  0  0  0  0  0  0  0  0  0  0
    5.8520   -8.6201   17.0616 C   0  0  0  0  0  0  0  0  0  0  0  0
   11.2536   -2.8971   23.4223 N   0  0  0  0  0  0  0  0  0  0  0  0
    6.2679   -8.1895   16.2376 C   0  0  0  0  0  0  0  0  0  0  0  0
   12.8115   -4.0067   18.5753 C   0  0  0  0  0  0  0  0  0  0  0  0
    4.4322   -9.8628   16.8430 C   0  0  0  0  0  0  0  0  0  0  0  0
    8.4946   -8.1901   17.3390 C   0  0  0  0  0  0  0  0  0  0  0  0
   10.6133   -5.0837   16.4163 He  0  0  0  0  0  0  0  0  0  0  0  0
   11.9381   -3.2151   16.1094 He  0  0  0  0  0  0  0  0  0  0  0  0
    9.1089   -6.3241   18.5493 He  0  0  0  0  0  0  0  0  0  0  0  0
   12.2359   -3.4469   22.5002 He  0  0  0  0  0  0  0  0  0  0  0  0
    8.4327   -6.4140   16.0923 He  0  0  0  0  0  0  0  0  0  0  0  0
  1  3  4  0
  1  4  4  0
  1 10  3  0
  1 19  2  0
  2  6  4  0
  2  9  4  0
  2 11  1  0
  2 12  4  0
  2 15  4  0
  2 19  3  0
  2 20  2  0
  3  4  4  0
  3  6  3  0
  3  9  3  0
  3 18  3  0
  4  6  4  0
  4 18  3  0
  4 20  2  0
  5 10  4  0
  5 12  4  0
  5 14  1  0
  6 15  3  0
  6 16  1  0
  6 18  3  0
  7 10  4  0
  7 17  4  0
  7 18  4  0
  7 19  4  0
  8 14  1  0
  8 15  1  0
  9 15  2  0
 10 14  3  0
 10 16  4  0
 10 18  1  0
 11 15  1  0
 11 16  4  0
 11 20  1  0
 12 18  3  0
 13 15  3  0
 13 18  4  0
 13 20  4  0
 15 17  4  0
 15 19  4  0
 17 18  1  0
M  END
$$$$

 Created by Python create_sdf_string function

 25 24  0  0  0  0  0  0  0  0999 V2000
   13.0518   -4.4457   21.2281 C   0  0  0  0  0  0  0  0  0  0  0  0
   11.8684   -3.3727   17.3536 C   0  0  0  0  0  0  0  0  0  0  0  0
   10.8514   -4.0023   20.3586 C   0  0  0  0  0  0  0  0  0  0  0  0
   10.0931   -4.6658   16.6105 C   0  0  0  0  0  0  0  0  0  0  0  0
   12.0463   -3.1999   16.0359 O   0  0  0  0  0  0  0  0  0  0  0  0
   10.5368   -3.6082   21.4343 C   0  0  0  0  0  0  0  0  0  0  0  0
   11.4287   -4.1639   19.7429 C   0  0  0  0  0  0  0  0  0  0  0  0
   11.3594   -3.4986   22.5207 C   0  0  0  0  0  0  0  0  0  0  0  0
    4.8014   -9.1192   15.7019 C   0  0  0  0  0  0  0  0  0  0  0  0
    7.6774   -7.8423   17.4534 N   0  0  0  0  0  0  0  0  0  0  0  0
    9.1637   -6.7037   18.0891 C   0  0  0  0  0  0  0  0  0  0  0  0
    4.4638   -9.4480   17.8272 C   0  0  0  0  0  0  0  0  0  0  0  0
   11.1985   -3.8562   17.0631 C   0  0  0  0  0  0  0  0  0  0  0  0
    8.1517   -6.2714   15.6785 C   0  0  0  0  0  0  0  0  0  0  0  0
    5.7175   -8.7842   18.2235 C   0  0  0  0  0  0  0  0  0  0  0  0
   10.2596   -4.7291   18.9710 C   0  0  0  0  0  0  0  0  0  0  0  0
    6.4779   -8.3471   17.1832 C   0  0  0  0  0  0  0  0  0  0  0  0
   11.0586   -3.0512   23.7163 N   0  0  0  0  0  0  0  0  0  0  0  0
    9.3546   -6.0385   18.3477 C   0  0  0  0  0  0  0  0  0  0  0  0
    5.9991   -8.5755   15.9348 C   0  0  0  0  0  0  0  0  0  0  0  0
   12.5601   -4.2605   19.1994 C   0  0  0  0  0  0  0  0  0  0  0  0
    4.0017   -9.5040   16.7420 C   0  0  0  0  0  0  0  0  0  0  0  0
   12.6319   -3.9433   22.1692 C   0  0  0  0  0  0  0  0  0  0  0  0
    8.7766   -5.6662   16.1016 C   0  0  0  0  0  0  0  0  0  0  0  0
    8.6411   -7.6355   17.7019 C   0  0  0  0  0  0  0  0  0  0  0  0
  1 21  4  0
  1 23  4  0
  2  5  2  0
  2 13  1  0
  3  6  4  0
  3  7  4  0
  3 16  1  0
  4 13  1  0
  4 24  4  0
  6  8  4  0
  7 16  1  0
  8 18  1  0
  8 23  4  0
  9 20  4  0
  9 22  4  0
 10 17  1  0
 10 25  1  0
 11 19  4  0
 11 25  4  0
 12 15  4  0
 12 22  4  0
 14 24  4  0
 15 17  4  0
 17 20  4  0
M  END
$$$$

 Created by Python create_sdf_string function

 25 20  0  0  0  0  0  0  0  0999 V2000
   12.7701   -5.2822   21.6090 C   0  0  0  0  0  0  0  0  0  0  0  0
   11.0982   -3.9116   18.5076 C   0  0  0  0  0  0  0  0  0  0  0  0
   10.7990   -3.7265   19.9160 C   0  0  0  0  0  0  0  0  0  0  0  0
   12.5147   -3.0536   15.5552 O   0  0  0  0  0  0  0  0  0  0  0  0
   11.0325   -3.3164   21.3954 O   0  0  0  0  0  0  0  0  0  0  0  0
   10.9948   -4.7392   18.8915 C   0  0  0  0  0  0  0  0  0  0  0  0
    4.2735   -8.5867   15.7953 C   0  0  0  0  0  0  0  0  0  0  0  0
    7.2540   -7.4255   17.0774 N   0  0  0  0  0  0  0  0  0  0  0  0
    9.8582   -6.1450   18.1194 C   0  0  0  0  0  0  0  0  0  0  0  0
    7.9482   -6.8678   15.1326 F   0  0  0  0  0  0  0  0  0  0  0  0
    5.8219   -9.1975   17.3135 F   0  0  0  0  0  0  0  0  0  0  0  0
    9.8280   -5.1754   19.3190 C   0  0  0  0  0  0  0  0  0  0  0  0
   11.0893   -4.0679   24.2610 N   0  0  0  0  0  0  0  0  0  0  0  0
    3.3492   -9.4255   16.2416 O   0  0  0  0  0  0  0  0  0  0  0  0
   10.7280   -4.4374   16.7779 He  0  0  0  0  0  0  0  0  0  0  0  0
   11.2871   -3.7517   23.1561 He  0  0  0  0  0  0  0  0  0  0  0  0
    3.7819   -9.2060   17.6935 He  0  0  0  0  0  0  0  0  0  0  0  0
   10.6387   -3.6742   16.5620 He  0  0  0  0  0  0  0  0  0  0  0  0
    6.4430   -9.1028   17.5324 He  0  0  0  0  0  0  0  0  0  0  0  0
    9.2597   -5.9442   18.1199 He  0  0  0  0  0  0  0  0  0  0  0  0
    6.0421   -8.6933   16.2028 He  0  0  0  0  0  0  0  0  0  0  0  0
   12.4819   -4.2602   18.9693 He  0  0  0  0  0  0  0  0  0  0  0  0
   12.1286   -4.0665   21.5648 He  0  0  0  0  0  0  0  0  0  0  0  0
    8.6046   -6.3523   16.0021 He  0  0  0  0  0  0  0  0  0  0  0  0
    8.1662   -7.7435   17.7191 He  0  0  0  0  0  0  0  0  0  0  0  0
  1  8  1  0
  1 10  4  0
  2  4  2  0
  2 12  1  0
  2 13  2  0
  3  4  1  0
  3  6  4  0
  3  7  4  0
  3 13  4  0
  4  6  1  0
  7  8  1  0
  7 10  2  0
  7 12  4  0
  7 13  2  0
  7 14  4  0
  8 10  1  0
  8 14  2  0
  9 10  3  0
  9 12  2  0
 13 14  1  0
M  END
$$$$

 Created by Python create_sdf_string function

 25 26  0  0  0  0  0  0  0  0999 V2000
   12.8141   -5.1057   21.2356 C   0  0  0  0  0  0  0  0  0  0  0  0
   11.1326   -3.9128   17.3158 C   0  0  0  0  0  0  0  0  0  0  0  0
   10.6574   -3.7960   20.5595 C   0  0  0  0  0  0  0  0  0  0  0  0
    9.7756   -4.7833   16.3258 N   0  0  0  0  0  0  0  0  0  0  0  0
   11.9215   -3.2808   16.2824 O   0  0  0  0  0  0  0  0  0  0  0  0
   10.7183   -3.4622   21.8418 C   0  0  0  0  0  0  0  0  0  0  0  0
   11.1469   -4.4888   19.7559 C   0  0  0  0  0  0  0  0  0  0  0  0
   11.3655   -3.9442   23.0050 C   0  0  0  0  0  0  0  0  0  0  0  0
    4.3145   -8.7530   15.6590 C   0  0  0  0  0  0  0  0  0  0  0  0
    7.4998   -7.8680   17.0465 N   0  0  0  0  0  0  0  0  0  0  0  0
    9.6377   -5.9023   18.1367 C   0  0  0  0  0  0  0  0  0  0  0  0
    4.2060   -9.4280   17.7199 C   0  0  0  0  0  0  0  0  0  0  0  0
   10.4331   -3.8062   16.8754 N   0  0  0  0  0  0  0  0  0  0  0  0
    8.0313   -6.9121   15.9440 C   0  0  0  0  0  0  0  0  0  0  0  0
    5.4863   -8.9304   17.8887 C   0  0  0  0  0  0  0  0  0  0  0  0
   10.4744   -5.0376   18.5063 C   0  0  0  0  0  0  0  0  0  0  0  0
    6.2351   -8.4250   16.9517 C   0  0  0  0  0  0  0  0  0  0  0  0
   11.1989   -3.7976   24.0950 O   0  0  0  0  0  0  0  0  0  0  0  0
    9.1110   -6.5513   18.2614 C   0  0  0  0  0  0  0  0  0  0  0  0
    5.6481   -8.4010   15.7532 C   0  0  0  0  0  0  0  0  0  0  0  0
   12.3080   -5.2087   19.8097 C   0  0  0  0  0  0  0  0  0  0  0  0
    3.6039   -9.1736   16.6902 C   0  0  0  0  0  0  0  0  0  0  0  0
   12.2360   -4.5880   22.0827 C   0  0  0  0  0  0  0  0  0  0  0  0
    8.7509   -5.9598   16.1235 C   0  0  0  0  0  0  0  0  0  0  0  0
    8.1016   -7.5729   18.0312 C   0  0  0  0  0  0  0  0  0  0  0  0
  1 21  4  0
  1 23  4  0
  2  5  2  0
  2 13  1  0
  2 16  1  0
  3  6  4  0
  3  7  4  0
  4 24  4  0
  6  8  4  0
  7 16  1  0
  7 21  4  0
  8 18  1  0
  8 23  4  0
  9 20  4  0
  9 22  4  0
 10 14  4  0
 10 17  1  0
 10 25  1  0
 11 16  4  0
 11 19  4  0
 12 15  4  0
 12 22  4  0
 14 24  4  0
 15 17  4  0
 17 20  4  0
 19 25  4  0
M  END
$$$$

 Created by Python create_sdf_string function

 25 50  0  0  0  0  0  0  0  0999 V2000
   11.3375   -4.0192   17.4722 N   0  0  0  0  0  0  0  0  0  0  0  0
   11.6407   -2.5244   20.6200 C   0  0  0  0  0  0  0  0  0  0  0  0
   12.2341   -3.7333   15.6662 O   0  0  0  0  0  0  0  0  0  0  0  0
   11.9525   -3.4531   20.7849 C   0  0  0  0  0  0  0  0  0  0  0  0
    9.7810   -4.3236   19.6885 C   0  0  0  0  0  0  0  0  0  0  0  0
   10.6978   -3.4864   23.4085 C   0  0  0  0  0  0  0  0  0  0  0  0
    9.8690   -6.4750   18.3205 C   0  0  0  0  0  0  0  0  0  0  0  0
    4.7826   -9.2025   17.0025 C   0  0  0  0  0  0  0  0  0  0  0  0
    8.5728   -7.1159   16.1981 S   0  0  0  0  0  0  0  0  0  0  0  0
    5.4999   -8.7143   17.2157 N   0  0  0  0  0  0  0  0  0  0  0  0
    6.4437   -8.9204   16.5000 S   0  0  0  0  0  0  0  0  0  0  0  0
    9.1251   -6.3826   18.9544 F   0  0  0  0  0  0  0  0  0  0  0  0
    6.5293   -9.0747   16.3774 C   0  0  0  0  0  0  0  0  0  0  0  0
   11.7636   -5.8015   19.8522 C   0  0  0  0  0  0  0  0  0  0  0  0
    3.3654   -8.9869   17.5657 C   0  0  0  0  0  0  0  0  0  0  0  0
   11.8114   -4.1549   22.2473 O   0  0  0  0  0  0  0  0  0  0  0  0
    8.3353   -5.8342   15.5193 P   0  0  0  0  0  0  0  0  0  0  0  0
    8.4286   -7.5563   17.5436 C   0  0  0  0  0  0  0  0  0  0  0  0
   12.4968   -5.6794   21.5345 He  0  0  0  0  0  0  0  0  0  0  0  0
   10.0577   -4.4010   16.4058 He  0  0  0  0  0  0  0  0  0  0  0  0
    4.6394   -8.7626   16.1498 He  0  0  0  0  0  0  0  0  0  0  0  0
    7.7697   -7.8491   16.9845 He  0  0  0  0  0  0  0  0  0  0  0  0
   10.3904   -3.2960   15.8525 He  0  0  0  0  0  0  0  0  0  0  0  0
   11.2148   -4.6345   19.3334 He  0  0  0  0  0  0  0  0  0  0  0  0
   11.3632   -4.1062   24.1660 He  0  0  0  0  0  0  0  0  0  0  0  0
  1  3  2  0
  1 12  2  0
  1 13  1  0
  1 14  2  0
  1 16  1  0
  2  4  4  0
  2  5  4  0
  2  6  3  0
  2 13  3  0
  2 16  1  0
  2 18  1  0
  3  4  4  0
  3  9  1  0
  3 11  1  0
  3 13  1  0
  3 15  3  0
  4  5  3  0
  4  6  4  0
  4  8  3  0
  4 10  1  0
  4 12  3  0
  5  8  2  0
  5 13  1  0
  5 14  1  0
  5 16  3  0
  6  7  4  0
  6  9  2  0
  6 10  3  0
  6 15  1  0
  6 16  4  0
  6 18  1  0
  7  9  1  0
  7 12  4  0
  7 13  1  0
  7 15  2  0
  7 16  2  0
  8  9  1  0
  8 15  4  0
  8 17  1  0
  9 11  1  0
  9 15  3  0
  9 17  4  0
 11 12  4  0
 11 13  4  0
 12 17  1  0
 12 18  4  0
 13 18  3  0
 14 15  3  0
 14 16  4  0
 15 17  3  0
M  END
$$$$

 Created by Python create_sdf_string function

 25 26  0  0  0  0  0  0  0  0999 V2000
   12.0969   -5.3174   21.6731 C   0  0  0  0  0  0  0  0  0  0  0  0
   11.0349   -3.8185   17.0223 S   0  0  0  0  0  0  0  0  0  0  0  0
   10.8855   -3.2659   20.7012 C   0  0  0  0  0  0  0  0  0  0  0  0
    9.7366   -5.1981   16.8871 C   0  0  0  0  0  0  0  0  0  0  0  0
   11.9508   -3.8155   16.2144 O   0  0  0  0  0  0  0  0  0  0  0  0
   11.0119   -3.2022   21.5070 C   0  0  0  0  0  0  0  0  0  0  0  0
   10.9704   -4.2861   19.8149 C   0  0  0  0  0  0  0  0  0  0  0  0
   11.4122   -3.9188   23.2699 C   0  0  0  0  0  0  0  0  0  0  0  0
    4.5099   -9.1796   15.8046 C   0  0  0  0  0  0  0  0  0  0  0  0
    7.7000   -8.1553   17.1680 O   0  0  0  0  0  0  0  0  0  0  0  0
    9.7662   -5.7561   18.0325 C   0  0  0  0  0  0  0  0  0  0  0  0
    4.5115   -8.8686   17.5639 C   0  0  0  0  0  0  0  0  0  0  0  0
   10.6053   -3.3991   16.3446 N   0  0  0  0  0  0  0  0  0  0  0  0
    8.3240   -6.7249   16.1240 C   0  0  0  0  0  0  0  0  0  0  0  0
    5.6933   -8.5007   17.8909 N   0  0  0  0  0  0  0  0  0  0  0  0
   10.6348   -4.4029   18.7942 C   0  0  0  0  0  0  0  0  0  0  0  0
    6.4682   -8.4727   16.8075 C   0  0  0  0  0  0  0  0  0  0  0  0
   11.3905   -3.9318   24.3289 O   0  0  0  0  0  0  0  0  0  0  0  0
    9.2734   -6.8260   18.3388 C   0  0  0  0  0  0  0  0  0  0  0  0
    5.8845   -8.9650   15.7170 C   0  0  0  0  0  0  0  0  0  0  0  0
   11.8715   -5.3847   20.4001 C   0  0  0  0  0  0  0  0  0  0  0  0
    3.7782   -9.1011   16.9296 C   0  0  0  0  0  0  0  0  0  0  0  0
   11.7495   -4.7711   22.3689 C   0  0  0  0  0  0  0  0  0  0  0  0
    8.9275   -5.6590   16.0496 C   0  0  0  0  0  0  0  0  0  0  0  0
    8.3831   -7.3509   17.4374 C   0  0  0  0  0  0  0  0  0  0  0  0
  1 21  4  0
  1 23  4  0
  2  5  2  0
  2 13  1  0
  2 16  1  0
  3  6  4  0
  3  7  4  0
  4 11  4  0
  4 24  4  0
  7 16  1  0
  7 21  4  0
  8 18  1  0
  8 23  4  0
  9 20  4  0
  9 22  4  0
 10 17  1  0
 10 25  1  0
 11 16  1  0
 11 19  4  0
 12 15  4  0
 12 22  4  0
 14 24  4  0
 14 25  4  0
 15 17  4  0
 17 20  4  0
 19 25  4  0
M  END
$$$$

 Created by Python create_sdf_string function

 25 33  0  0  0  0  0  0  0  0999 V2000
   12.6347   -5.8873   21.8866 C   0  0  0  0  0  0  0  0  0  0  0  0
   11.5720   -4.3637   16.6012 S   0  0  0  0  0  0  0  0  0  0  0  0
   12.3538   -3.1109   20.6797 C   0  0  0  0  0  0  0  0  0  0  0  0
   10.0479   -4.8208   16.1985 C   0  0  0  0  0  0  0  0  0  0  0  0
   11.8043   -3.3023   16.5595 P   0  0  0  0  0  0  0  0  0  0  0  0
   10.7070   -3.0506   21.5487 N   0  0  0  0  0  0  0  0  0  0  0  0
    7.5234   -8.0614   17.3068 O   0  0  0  0  0  0  0  0  0  0  0  0
    5.5971   -9.1239   18.0220 C   0  0  0  0  0  0  0  0  0  0  0  0
   10.4380   -3.5253   15.7070 N   0  0  0  0  0  0  0  0  0  0  0  0
    7.5061   -6.2636   16.5034 N   0  0  0  0  0  0  0  0  0  0  0  0
    5.5774   -8.0715   16.9393 N   0  0  0  0  0  0  0  0  0  0  0  0
   10.9614   -4.5133   18.1984 C   0  0  0  0  0  0  0  0  0  0  0  0
   11.4934   -4.6026   24.7665 O   0  0  0  0  0  0  0  0  0  0  0  0
    9.8253   -6.3670   18.3771 F   0  0  0  0  0  0  0  0  0  0  0  0
    5.5095   -8.8438   16.3154 C   0  0  0  0  0  0  0  0  0  0  0  0
   11.3216   -4.8549   20.1777 C   0  0  0  0  0  0  0  0  0  0  0  0
    8.2877   -4.8533   15.7149 N   0  0  0  0  0  0  0  0  0  0  0  0
    8.9062   -7.9684   17.2934 C   0  0  0  0  0  0  0  0  0  0  0  0
   11.0607   -3.7737   19.1427 He  0  0  0  0  0  0  0  0  0  0  0  0
   11.1483   -4.3374   23.3946 He  0  0  0  0  0  0  0  0  0  0  0  0
    3.7758   -8.8448   15.8969 He  0  0  0  0  0  0  0  0  0  0  0  0
    9.0350   -5.7240   17.9554 He  0  0  0  0  0  0  0  0  0  0  0  0
    6.9525   -8.3366   16.6212 He  0  0  0  0  0  0  0  0  0  0  0  0
    4.0903   -9.3118   16.8697 He  0  0  0  0  0  0  0  0  0  0  0  0
   11.9621   -5.0330   22.5373 He  0  0  0  0  0  0  0  0  0  0  0  0
  1  5  2  0
  1 16  4  0
  2  5  2  0
  2  9  1  0
  2 11  2  0
  2 12  1  0
  2 14  1  0
  2 18  3  0
  4  5  2  0
  4  6  3  0
  4  8  2  0
  4  9  3  0
  4 10  4  0
  4 12  2  0
  4 17  4  0
  5  8  4  0
  5 11  4  0
  5 14  4  0
  5 15  4  0
  6 10  1  0
  6 14  3  0
  7 15  4  0
  7 18  1  0
  8 10  3  0
  8 11  4  0
  8 14  3  0
  8 15  1  0
  9 11  1  0
  9 15  4  0
 10 17  4  0
 10 18  4  0
 12 16  2  0
 14 16  1  0
M  END
$$$$

 Created by Python create_sdf_string function

 25 28  0  0  0  0  0  0  0  0999 V2000
   11.9038   -5.4454   21.4419 C   0  0  0  0  0  0  0  0  0  0  0  0
   11.1386   -3.6914   17.0425 C   0  0  0  0  0  0  0  0  0  0  0  0
   10.9821   -3.3785   20.6217 C   0  0  0  0  0  0  0  0  0  0  0  0
    9.4839   -4.8562   16.5048 C   0  0  0  0  0  0  0  0  0  0  0  0
   12.1196   -3.0094   16.7651 O   0  0  0  0  0  0  0  0  0  0  0  0
   10.9620   -3.2647   21.9036 C   0  0  0  0  0  0  0  0  0  0  0  0
   11.0344   -4.2874   19.4805 C   0  0  0  0  0  0  0  0  0  0  0  0
   11.4256   -4.3889   23.2935 C   0  0  0  0  0  0  0  0  0  0  0  0
    4.2950   -8.9962   15.9599 C   0  0  0  0  0  0  0  0  0  0  0  0
    8.1972   -8.5762   17.1781 S   0  0  0  0  0  0  0  0  0  0  0  0
    9.8753   -5.5271   17.6469 C   0  0  0  0  0  0  0  0  0  0  0  0
    4.9412   -8.8712   18.1515 C   0  0  0  0  0  0  0  0  0  0  0  0
   10.2218   -3.8797   16.0621 N   0  0  0  0  0  0  0  0  0  0  0  0
    7.8392   -6.3604   16.2388 C   0  0  0  0  0  0  0  0  0  0  0  0
    5.8593   -8.3316   17.9537 C   0  0  0  0  0  0  0  0  0  0  0  0
   10.8352   -4.4890   18.2454 C   0  0  0  0  0  0  0  0  0  0  0  0
    6.5106   -8.3329   16.8365 C   0  0  0  0  0  0  0  0  0  0  0  0
   11.3976   -4.4628   24.4018 O   0  0  0  0  0  0  0  0  0  0  0  0
    9.5172   -6.6519   18.0256 C   0  0  0  0  0  0  0  0  0  0  0  0
    5.4234   -8.6997   15.7046 C   0  0  0  0  0  0  0  0  0  0  0  0
   11.6892   -5.2705   20.2242 C   0  0  0  0  0  0  0  0  0  0  0  0
    4.0221   -9.2134   17.0843 C   0  0  0  0  0  0  0  0  0  0  0  0
   11.6627   -4.8764   22.2336 C   0  0  0  0  0  0  0  0  0  0  0  0
    8.3643   -5.1427   15.9388 N   0  0  0  0  0  0  0  0  0  0  0  0
    8.4545   -7.1832   17.1515 C   0  0  0  0  0  0  0  0  0  0  0  0
  1 21  4  0
  1 23  4  0
  2  5  2  0
  2 13  1  0
  2 16  1  0
  3  6  4  0
  3  7  4  0
  4 11  4  0
  4 13  1  0
  4 24  4  0
  6  8  4  0
  7 16  1  0
  7 21  4  0
  8 18  1  0
  8 23  1  0
  9 20  4  0
  9 22  4  0
 10 17  1  0
 10 25  1  0
 11 16  1  0
 11 19  4  0
 12 15  4  0
 12 22  4  0
 14 24  4  0
 14 25  4  0
 15 17  4  0
 17 20  4  0
 19 25  4  0
M  END
$$$$

 Created by Python create_sdf_string function

 25 49  0  0  0  0  0  0  0  0999 V2000
   12.0787   -3.2716   17.4461 N   0  0  0  0  0  0  0  0  0  0  0  0
   10.2452   -4.4918   16.6951 C   0  0  0  0  0  0  0  0  0  0  0  0
   11.3545   -2.3950   16.8340 O   0  0  0  0  0  0  0  0  0  0  0  0
   10.4584   -4.4353   19.5489 C   0  0  0  0  0  0  0  0  0  0  0  0
   11.2899   -3.9582   23.2690 C   0  0  0  0  0  0  0  0  0  0  0  0
    8.1650   -8.3048   16.7363 S   0  0  0  0  0  0  0  0  0  0  0  0
    9.4775   -5.3137   17.4878 C   0  0  0  0  0  0  0  0  0  0  0  0
    9.7532   -4.0733   16.1234 S   0  0  0  0  0  0  0  0  0  0  0  0
    7.7495   -5.9089   16.6077 C   0  0  0  0  0  0  0  0  0  0  0  0
    5.9139   -8.2702   18.0224 N   0  0  0  0  0  0  0  0  0  0  0  0
   10.6311   -4.3431   18.9533 C   0  0  0  0  0  0  0  0  0  0  0  0
   10.9676   -4.9986   24.0619 O   0  0  0  0  0  0  0  0  0  0  0  0
    9.7243   -6.9837   17.3526 C   0  0  0  0  0  0  0  0  0  0  0  0
    6.1587   -8.8567   15.2322 C   0  0  0  0  0  0  0  0  0  0  0  0
   11.8033   -5.4440   19.7703 C   0  0  0  0  0  0  0  0  0  0  0  0
    4.1123   -9.4553   17.1781 C   0  0  0  0  0  0  0  0  0  0  0  0
   11.3322   -4.8031   22.0244 C   0  0  0  0  0  0  0  0  0  0  0  0
    8.8973   -4.8986   16.1158 N   0  0  0  0  0  0  0  0  0  0  0  0
    8.7515   -7.3152   16.7093 O   0  0  0  0  0  0  0  0  0  0  0  0
   12.8631   -6.0616   22.5807 He  0  0  0  0  0  0  0  0  0  0  0  0
   11.2572   -3.5747   20.2961 He  0  0  0  0  0  0  0  0  0  0  0  0
   11.1543   -3.0013   21.7872 He  0  0  0  0  0  0  0  0  0  0  0  0
    4.7912   -9.8247   15.8726 He  0  0  0  0  0  0  0  0  0  0  0  0
    5.1229   -9.1099   18.0693 He  0  0  0  0  0  0  0  0  0  0  0  0
    6.7785   -8.7511   17.4883 He  0  0  0  0  0  0  0  0  0  0  0  0
  1  3  2  0
  1  6  1  0
  1  7  4  0
  1  8  1  0
  1  9  1  0
  1 10  3  0
  1 11  1  0
  1 18  2  0
  2  7  4  0
  2  9  2  0
  2 11  2  0
  2 12  1  0
  2 14  1  0
  2 15  2  0
  2 18  4  0
  3  7  4  0
  3 12  2  0
  3 18  2  0
  4  6  1  0
  4  7  4  0
  4 12  2  0
  4 18  1  0
  5 12  1  0
  5 15  4  0
  6  7  3  0
  6  9  1  0
  6 14  4  0
  6 16  4  0
  7 11  1  0
  7 13  4  0
  7 14  2  0
  7 19  1  0
  8 12  1  0
  8 15  3  0
  8 16  1  0
  9 13  3  0
  9 15  4  0
  9 16  2  0
  9 19  4  0
 10 14  2  0
 10 15  2  0
 11 16  1  0
 11 19  2  0
 12 19  4  0
 13 19  4  0
 14 19  2  0
 16 18  4  0
 16 19  2  0
 17 18  4  0
M  END
$$$$

 Created by Python create_sdf_string function

 25 28  0  0  0  0  0  0  0  0999 V2000
   12.4262   -5.6421   22.4068 O   0  0  0  0  0  0  0  0  0  0  0  0
   11.1532   -3.4190   17.4595 C   0  0  0  0  0  0  0  0  0  0  0  0
   10.8841   -3.5038   20.7172 C   0  0  0  0  0  0  0  0  0  0  0  0
    9.6034   -4.7228   16.6433 C   0  0  0  0  0  0  0  0  0  0  0  0
   11.8198   -2.4644   17.3845 O   0  0  0  0  0  0  0  0  0  0  0  0
   10.8141   -3.3223   21.9335 C   0  0  0  0  0  0  0  0  0  0  0  0
   11.2223   -4.6108   19.7315 C   0  0  0  0  0  0  0  0  0  0  0  0
   11.2907   -4.2605   22.9919 C   0  0  0  0  0  0  0  0  0  0  0  0
    4.7976   -9.4974   15.9333 C   0  0  0  0  0  0  0  0  0  0  0  0
    8.2213   -8.5896   16.9511 S   0  0  0  0  0  0  0  0  0  0  0  0
    9.9859   -5.4831   17.6835 C   0  0  0  0  0  0  0  0  0  0  0  0
    4.8936   -8.9437   18.0450 C   0  0  0  0  0  0  0  0  0  0  0  0
   10.3037   -3.6901   16.2870 N   0  0  0  0  0  0  0  0  0  0  0  0
    8.0220   -6.1391   16.0837 C   0  0  0  0  0  0  0  0  0  0  0  0
    6.0765   -8.4777   18.0545 N   0  0  0  0  0  0  0  0  0  0  0  0
   10.9400   -4.5938   18.4006 C   0  0  0  0  0  0  0  0  0  0  0  0
    6.8010   -8.6881   16.9369 C   0  0  0  0  0  0  0  0  0  0  0  0
   11.2825   -4.3187   24.2117 O   0  0  0  0  0  0  0  0  0  0  0  0
    9.4565   -6.7929   17.8610 C   0  0  0  0  0  0  0  0  0  0  0  0
    6.1160   -9.1240   15.8097 C   0  0  0  0  0  0  0  0  0  0  0  0
   11.5618   -5.4903   20.0513 C   0  0  0  0  0  0  0  0  0  0  0  0
    4.1621   -9.3950   17.0757 C   0  0  0  0  0  0  0  0  0  0  0  0
   11.6559   -4.9010   21.8984 C   0  0  0  0  0  0  0  0  0  0  0  0
    8.5242   -4.9587   15.9684 N   0  0  0  0  0  0  0  0  0  0  0  0
    8.5434   -7.1137   16.9590 C   0  0  0  0  0  0  0  0  0  0  0  0
  1 23  4  0
  2  5  2  0
  2 13  1  0
  2 16  1  0
  3  6  4  0
  3  7  4  0
  4 11  4  0
  4 13  1  0
  4 24  4  0
  6  8  4  0
  7 16  1  0
  7 21  4  0
  8 18  1  0
  8 23  4  0
  9 20  4  0
  9 22  4  0
 10 17  1  0
 10 25  1  0
 11 16  1  0
 11 19  4  0
 12 15  4  0
 12 22  4  0
 14 24  4  0
 14 25  4  0
 15 17  4  0
 16 21  4  0
 17 20  4  0
 19 25  4  0
M  END
$$$$

 Created by Python create_sdf_string function

 25 24  0  0  0  0  0  0  0  0999 V2000
   12.6223   -4.6437   21.7446 O   0  0  0  0  0  0  0  0  0  0  0  0
   11.3002   -3.5409   17.1307 C   0  0  0  0  0  0  0  0  0  0  0  0
   10.3120   -2.8183   20.5044 C   0  0  0  0  0  0  0  0  0  0  0  0
    9.7548   -4.8949   16.3342 C   0  0  0  0  0  0  0  0  0  0  0  0
   10.2629   -4.2011   21.2722 P   0  0  0  0  0  0  0  0  0  0  0  0
   11.5143   -4.6984   19.9777 C   0  0  0  0  0  0  0  0  0  0  0  0
   11.0290   -3.8647   22.9216 C   0  0  0  0  0  0  0  0  0  0  0  0
    8.6046   -9.8950   16.7428 S   0  0  0  0  0  0  0  0  0  0  0  0
    5.7651   -7.6795   18.3874 N   0  0  0  0  0  0  0  0  0  0  0  0
   11.5877   -4.2844   18.2112 C   0  0  0  0  0  0  0  0  0  0  0  0
   11.2837   -4.5943   24.1488 O   0  0  0  0  0  0  0  0  0  0  0  0
    9.7048   -6.7758   17.1866 P   0  0  0  0  0  0  0  0  0  0  0  0
    5.5547   -9.6921   15.4771 C   0  0  0  0  0  0  0  0  0  0  0  0
    4.5178  -10.2268   17.9297 C   0  0  0  0  0  0  0  0  0  0  0  0
   11.2241   -4.9776   22.2080 C   0  0  0  0  0  0  0  0  0  0  0  0
    8.8333   -7.2696   16.9787 Se  0  0  0  0  0  0  0  0  0  0  0  0
   11.0785   -2.4849   17.6374 He  0  0  0  0  0  0  0  0  0  0  0  0
    4.5494   -9.5603   15.9145 He  0  0  0  0  0  0  0  0  0  0  0  0
   10.4667   -4.9162   17.2523 He  0  0  0  0  0  0  0  0  0  0  0  0
    4.2763   -8.1017   17.4373 He  0  0  0  0  0  0  0  0  0  0  0  0
   10.6954   -4.5318   16.9053 He  0  0  0  0  0  0  0  0  0  0  0  0
    7.8349   -6.1032   15.9039 He  0  0  0  0  0  0  0  0  0  0  0  0
    6.4884   -8.6413   17.5133 He  0  0  0  0  0  0  0  0  0  0  0  0
   12.3906   -5.3255   20.4086 He  0  0  0  0  0  0  0  0  0  0  0  0
    8.5214   -4.6401   15.8085 He  0  0  0  0  0  0  0  0  0  0  0  0
  1  5  2  0
  1  8  4  0
  1 16  1  0
  2  3  2  0
  2  6  4  0
  2 10  1  0
  2 11  1  0
  2 13  2  0
  3  5  2  0
  3  9  2  0
  3 14  3  0
  4 12  1  0
  5 11  4  0
  5 16  2  0
  6  9  2  0
  6 11  1  0
  6 15  4  0
  7  8  3  0
  7 11  2  0
  7 15  4  0
  8 15  2  0
  8 16  1  0
  9 14  3  0
 10 15  1  0
M  END
$$$$

 Created by Python create_sdf_string function

 25 28  0  0  0  0  0  0  0  0999 V2000
   12.6956   -5.2929   21.7211 C   0  0  0  0  0  0  0  0  0  0  0  0
   11.3209   -3.6453   17.5205 C   0  0  0  0  0  0  0  0  0  0  0  0
   10.3579   -3.9493   20.4618 C   0  0  0  0  0  0  0  0  0  0  0  0
    9.7580   -4.7761   16.5196 C   0  0  0  0  0  0  0  0  0  0  0  0
   11.6063   -2.4369   17.7832 N   0  0  0  0  0  0  0  0  0  0  0  0
   10.3992   -3.7927   21.7962 C   0  0  0  0  0  0  0  0  0  0  0  0
   11.4262   -4.6023   19.8677 C   0  0  0  0  0  0  0  0  0  0  0  0
   11.1721   -4.3366   23.0423 C   0  0  0  0  0  0  0  0  0  0  0  0
    4.7150   -9.7100   16.2679 C   0  0  0  0  0  0  0  0  0  0  0  0
    8.2899   -8.7140   16.8895 S   0  0  0  0  0  0  0  0  0  0  0  0
   10.1350   -5.5449   17.5787 C   0  0  0  0  0  0  0  0  0  0  0  0
    4.6656   -8.5937   18.0336 C   0  0  0  0  0  0  0  0  0  0  0  0
   10.6071   -3.8585   16.3148 N   0  0  0  0  0  0  0  0  0  0  0  0
    7.9862   -6.1492   16.0019 C   0  0  0  0  0  0  0  0  0  0  0  0
    5.9222   -8.1577   18.0039 N   0  0  0  0  0  0  0  0  0  0  0  0
   11.2581   -4.7959   18.2512 C   0  0  0  0  0  0  0  0  0  0  0  0
    6.6631   -8.7429   16.9656 C   0  0  0  0  0  0  0  0  0  0  0  0
   11.0577   -4.3588   24.1491 O   0  0  0  0  0  0  0  0  0  0  0  0
    9.5817   -6.7860   17.7186 C   0  0  0  0  0  0  0  0  0  0  0  0
    6.0089   -9.5069   15.9942 C   0  0  0  0  0  0  0  0  0  0  0  0
   12.5038   -5.1983   20.3387 C   0  0  0  0  0  0  0  0  0  0  0  0
    3.9959   -9.3705   17.2108 C   0  0  0  0  0  0  0  0  0  0  0  0
   11.6745   -4.5445   22.3917 C   0  0  0  0  0  0  0  0  0  0  0  0
    8.5568   -4.9326   15.8921 C   0  0  0  0  0  0  0  0  0  0  0  0
    8.5412   -7.1316   16.8490 C   0  0  0  0  0  0  0  0  0  0  0  0
  1 21  4  0
  1 23  4  0
  2  5  1  0
  2 13  1  0
  2 16  1  0
  3  6  4  0
  3  7  4  0
  4 11  4  0
  4 13  1  0
  4 24  4  0
  6 23  4  0
  7 16  1  0
  7 21  4  0
  8 18  2  0
  8 23  4  0
  9 20  4  0
  9 22  4  0
 10 17  1  0
 10 25  1  0
 11 16  1  0
 11 19  4  0
 12 15  4  0
 12 22  4  0
 14 24  4  0
 14 25  4  0
 15 17  4  0
 17 20  4  0
 19 25  4  0
M  END
$$$$

 Created by Python create_sdf_string function

 25 37  0  0  0  0  0  0  0  0999 V2000
   12.5025   -5.3763   21.6653 C   0  0  0  0  0  0  0  0  0  0  0  0
   11.9866   -3.7786   17.4217 C   0  0  0  0  0  0  0  0  0  0  0  0
   10.4813   -3.5118   20.5182 C   0  0  0  0  0  0  0  0  0  0  0  0
   12.1579   -2.7534   17.4708 N   0  0  0  0  0  0  0  0  0  0  0  0
   11.8904   -3.9923   20.1058 C   0  0  0  0  0  0  0  0  0  0  0  0
   10.7421   -3.7632   23.7373 C   0  0  0  0  0  0  0  0  0  0  0  0
    8.4163   -9.2018   17.8779 S   0  0  0  0  0  0  0  0  0  0  0  0
    9.7731   -5.7667   18.1789 C   0  0  0  0  0  0  0  0  0  0  0  0
    5.3477   -9.1797   18.1905 C   0  0  0  0  0  0  0  0  0  0  0  0
    8.0188   -5.4412   16.1237 C   0  0  0  0  0  0  0  0  0  0  0  0
    6.1667   -8.0451   17.2984 F   0  0  0  0  0  0  0  0  0  0  0  0
   11.2443   -4.9353   18.5052 N   0  0  0  0  0  0  0  0  0  0  0  0
    6.4489   -8.8604   17.4162 C   0  0  0  0  0  0  0  0  0  0  0  0
   11.6756   -4.4403   23.1124 O   0  0  0  0  0  0  0  0  0  0  0  0
    8.8258   -6.3204   17.1221 C   0  0  0  0  0  0  0  0  0  0  0  0
   11.5746   -4.6186   22.0473 B   0  0  0  0  0  0  0  0  0  0  0  0
    8.6762   -5.3759   15.8601 C   0  0  0  0  0  0  0  0  0  0  0  0
    8.1763   -6.7815   16.9033 C   0  0  0  0  0  0  0  0  0  0  0  0
    9.4785   -5.1857   16.8811 He  0  0  0  0  0  0  0  0  0  0  0  0
   10.5146   -3.3183   21.4061 He  0  0  0  0  0  0  0  0  0  0  0  0
    3.9428   -9.8406   16.8797 He  0  0  0  0  0  0  0  0  0  0  0  0
   10.1886   -3.5667   16.9431 He  0  0  0  0  0  0  0  0  0  0  0  0
    6.6363   -9.0575   15.4738 He  0  0  0  0  0  0  0  0  0  0  0  0
   12.9205   -5.6751   19.5328 He  0  0  0  0  0  0  0  0  0  0  0  0
    3.9296   -9.5806   16.8883 He  0  0  0  0  0  0  0  0  0  0  0  0
  1  2  1  0
  1  3  4  0
  1  4  4  0
  1 14  4  0
  1 16  4  0
  2  4  1  0
  2  9  1  0
  2 10  1  0
  2 12  2  0
  2 14  1  0
  3  5  4  0
  3  8  4  0
  3 18  1  0
  4  9  4  0
  4 15  1  0
  4 16  1  0
  5 16  2  0
  5 18  2  0
  6 14  2  0
  6 16  4  0
  7 11  4  0
  7 13  1  0
  8 10  1  0
  8 12  1  0
  8 15  4  0
  9 10  1  0
  9 11  4  0
  9 16  1  0
 10 12  1  0
 10 14  4  0
 10 16  3  0
 11 12  1  0
 11 13  4  0
 11 15  3  0
 12 16  2  0
 12 18  4  0
 17 18  3  0
M  END
$$$$

 Created by Python create_sdf_string function

 25 28  0  0  0  0  0  0  0  0999 V2000
   12.5884   -5.1683   21.4632 C   0  0  0  0  0  0  0  0  0  0  0  0
   11.4927   -3.6558   17.3920 C   0  0  0  0  0  0  0  0  0  0  0  0
   10.6372   -3.6821   20.1073 C   0  0  0  0  0  0  0  0  0  0  0  0
    9.5776   -4.7867   16.7085 C   0  0  0  0  0  0  0  0  0  0  0  0
   12.3828   -2.7947   17.2855 O   0  0  0  0  0  0  0  0  0  0  0  0
   10.7020   -3.6274   21.5271 C   0  0  0  0  0  0  0  0  0  0  0  0
   11.4715   -4.5590   19.5190 C   0  0  0  0  0  0  0  0  0  0  0  0
   10.8671   -3.8664   24.1901 C   0  0  0  0  0  0  0  0  0  0  0  0
    4.6590   -9.5010   16.1567 C   0  0  0  0  0  0  0  0  0  0  0  0
    8.2710   -8.6922   16.8735 S   0  0  0  0  0  0  0  0  0  0  0  0
   10.0009   -5.5490   17.6545 C   0  0  0  0  0  0  0  0  0  0  0  0
    4.8274   -9.0283   18.1424 C   0  0  0  0  0  0  0  0  0  0  0  0
   10.3503   -3.6701   16.4371 N   0  0  0  0  0  0  0  0  0  0  0  0
    7.8848   -6.1549   16.0171 C   0  0  0  0  0  0  0  0  0  0  0  0
    6.0342   -8.5437   18.1054 C   0  0  0  0  0  0  0  0  0  0  0  0
   11.1512   -4.9033   18.2993 C   0  0  0  0  0  0  0  0  0  0  0  0
    6.7126   -8.7220   17.0186 C   0  0  0  0  0  0  0  0  0  0  0  0
   11.5182   -4.4414   23.6640 O   0  0  0  0  0  0  0  0  0  0  0  0
    9.3763   -6.7572   17.8786 C   0  0  0  0  0  0  0  0  0  0  0  0
    5.9796   -9.0817   15.9212 C   0  0  0  0  0  0  0  0  0  0  0  0
   12.4294   -5.2992   20.1665 C   0  0  0  0  0  0  0  0  0  0  0  0
    4.1640   -9.4277   17.1632 C   0  0  0  0  0  0  0  0  0  0  0  0
   11.5472   -4.4147   22.0597 C   0  0  0  0  0  0  0  0  0  0  0  0
    8.4833   -4.9233   15.9441 C   0  0  0  0  0  0  0  0  0  0  0  0
    8.3708   -7.1198   16.9225 C   0  0  0  0  0  0  0  0  0  0  0  0
  1 21  4  0
  1 23  4  0
  2  5  1  0
  2 13  1  0
  2 16  1  0
  3  6  4  0
  3  7  4  0
  4 11  4  0
  4 13  1  0
  4 24  4  0
  6 23  4  0
  7 16  1  0
  7 21  4  0
  8 18  1  0
  9 20  4  0
  9 22  4  0
 10 17  1  0
 10 25  1  0
 11 16  1  0
 11 19  4  0
 12 15  4  0
 12 22  4  0
 14 24  4  0
 14 25  4  0
 15 17  4  0
 17 20  4  0
 18 23  1  0
 19 25  4  0
M  END
$$$$

 Created by Python create_sdf_string function

 25 41  0  0  0  0  0  0  0  0999 V2000
   11.8758   -4.1550   17.5466 C   0  0  0  0  0  0  0  0  0  0  0  0
   11.1633   -3.9581   19.7869 C   0  0  0  0  0  0  0  0  0  0  0  0
    9.4327   -4.7538   16.8757 C   0  0  0  0  0  0  0  0  0  0  0  0
   12.3649   -2.6832   16.6277 O   0  0  0  0  0  0  0  0  0  0  0  0
   10.7207   -2.9537   21.0404 C   0  0  0  0  0  0  0  0  0  0  0  0
   11.1376   -3.6188   24.4503 C   0  0  0  0  0  0  0  0  0  0  0  0
    8.4565   -8.3116   17.0480 C   0  0  0  0  0  0  0  0  0  0  0  0
    9.3320   -5.6301   17.5246 P   0  0  0  0  0  0  0  0  0  0  0  0
    4.8445   -8.6896   18.4240 F   0  0  0  0  0  0  0  0  0  0  0  0
    8.1540   -6.3968   16.0618 C   0  0  0  0  0  0  0  0  0  0  0  0
    6.4297   -9.2679   18.4189 C   0  0  0  0  0  0  0  0  0  0  0  0
   11.3017   -4.6140   18.1563 N   0  0  0  0  0  0  0  0  0  0  0  0
    6.9273   -8.6679   17.0154 C   0  0  0  0  0  0  0  0  0  0  0  0
   12.0175   -3.8399   23.9380 O   0  0  0  0  0  0  0  0  0  0  0  0
    9.2939   -6.6406   17.7418 C   0  0  0  0  0  0  0  0  0  0  0  0
    5.9076   -8.9788   16.2568 C   0  0  0  0  0  0  0  0  0  0  0  0
   12.0715   -5.0641   19.5947 C   0  0  0  0  0  0  0  0  0  0  0  0
    4.7479   -8.9744   17.5926 C   0  0  0  0  0  0  0  0  0  0  0  0
   10.8179   -3.9799   22.1855 C   0  0  0  0  0  0  0  0  0  0  0  0
    9.0655   -6.8625   17.1629 C   0  0  0  0  0  0  0  0  0  0  0  0
   12.5993   -5.2703   21.8073 He  0  0  0  0  0  0  0  0  0  0  0  0
   11.7513   -4.5752   19.6354 He  0  0  0  0  0  0  0  0  0  0  0  0
    4.3792   -9.6220   16.1363 He  0  0  0  0  0  0  0  0  0  0  0  0
    9.9123   -3.0250   16.6234 He  0  0  0  0  0  0  0  0  0  0  0  0
    8.3346   -4.5971   15.7603 He  0  0  0  0  0  0  0  0  0  0  0  0
  1  4  1  0
  1 12  1  0
  1 20  3  0
  2  4  3  0
  2  5  4  0
  2 12  3  0
  2 16  2  0
  2 18  2  0
  2 19  3  0
  3  8  4  0
  3 12  1  0
  3 16  3  0
  4 18  1  0
  5  7  3  0
  5 10  1  0
  5 16  1  0
  6 14  1  0
  6 19  1  0
  7 10  4  0
  7 13  1  0
  7 19  2  0
  7 20  1  0
  8 12  1  0
  8 13  1  0
  8 15  4  0
  8 16  1  0
  9 11  4  0
  9 13  3  0
  9 18  4  0
 10 20  3  0
 11 13  4  0
 12 16  3  0
 12 18  4  0
 12 19  1  0
 14 17  2  0
 14 19  1  0
 14 20  4  0
 15 19  3  0
 16 19  4  0
 16 20  1  0
 18 19  4  0
M  END
$$$$

 Created by Python create_sdf_string function

 25 28  0  0  0  0  0  0  0  0999 V2000
   12.3972   -5.0544   21.6756 C   0  0  0  0  0  0  0  0  0  0  0  0
   11.4256   -3.7225   17.2778 C   0  0  0  0  0  0  0  0  0  0  0  0
   10.6831   -3.5721   20.1549 C   0  0  0  0  0  0  0  0  0  0  0  0
    9.5503   -4.6439   16.6466 C   0  0  0  0  0  0  0  0  0  0  0  0
   12.3857   -3.0988   16.9555 O   0  0  0  0  0  0  0  0  0  0  0  0
   10.7614   -3.3797   21.5232 C   0  0  0  0  0  0  0  0  0  0  0  0
   11.4424   -4.5225   19.6101 C   0  0  0  0  0  0  0  0  0  0  0  0
   10.7212   -3.5124   24.3727 C   0  0  0  0  0  0  0  0  0  0  0  0
    4.7472   -9.2594   16.1676 C   0  0  0  0  0  0  0  0  0  0  0  0
    8.3273   -8.5292   16.9714 C   0  0  0  0  0  0  0  0  0  0  0  0
   10.0877   -5.4176   17.6113 C   0  0  0  0  0  0  0  0  0  0  0  0
    5.0427   -8.9920   18.3850 C   0  0  0  0  0  0  0  0  0  0  0  0
   10.2123   -3.5280   16.4500 N   0  0  0  0  0  0  0  0  0  0  0  0
    8.0149   -6.2304   16.0249 C   0  0  0  0  0  0  0  0  0  0  0  0
    6.3030   -8.6394   18.2362 C   0  0  0  0  0  0  0  0  0  0  0  0
   11.2487   -4.8171   18.2147 C   0  0  0  0  0  0  0  0  0  0  0  0
    6.9557   -8.7543   17.1105 C   0  0  0  0  0  0  0  0  0  0  0  0
   11.7193   -4.0291   23.5147 O   0  0  0  0  0  0  0  0  0  0  0  0
    9.5969   -6.6269   17.8730 C   0  0  0  0  0  0  0  0  0  0  0  0
    6.1174   -9.0710   16.0329 C   0  0  0  0  0  0  0  0  0  0  0  0
   12.3062   -5.3033   20.3022 C   0  0  0  0  0  0  0  0  0  0  0  0
    4.1949   -9.2090   17.3330 C   0  0  0  0  0  0  0  0  0  0  0  0
   11.5807   -4.1510   22.2275 C   0  0  0  0  0  0  0  0  0  0  0  0
    8.4827   -4.9403   15.8856 C   0  0  0  0  0  0  0  0  0  0  0  0
    8.6265   -7.1233   16.9576 C   0  0  0  0  0  0  0  0  0  0  0  0
  1 21  4  0
  1 23  4  0
  2  5  1  0
  2 13  1  0
  2 16  1  0
  3  6  4  0
  3  7  4  0
  4 11  4  0
  4 13  1  0
  4 24  4  0
  6 23  4  0
  7 16  1  0
  7 21  4  0
  8 18  1  0
  9 20  4  0
  9 22  4  0
 10 17  1  0
 10 25  1  0
 11 16  1  0
 11 19  4  0
 12 15  4  0
 12 22  4  0
 14 24  4  0
 14 25  4  0
 15 17  4  0
 17 20  4  0
 18 23  1  0
 19 25  4  0
M  END
$$$$

 Created by Python create_sdf_string function

 25 40  0  0  0  0  0  0  0  0999 V2000
   11.5618   -4.0824   17.2903 C   0  0  0  0  0  0  0  0  0  0  0  0
   11.0289   -3.3007   20.9881 C   0  0  0  0  0  0  0  0  0  0  0  0
    9.1145   -4.7347   16.5083 C   0  0  0  0  0  0  0  0  0  0  0  0
   12.2568   -2.5491   17.3473 O   0  0  0  0  0  0  0  0  0  0  0  0
   10.6333   -3.0847   21.6441 C   0  0  0  0  0  0  0  0  0  0  0  0
   11.1008   -4.9117   19.8068 C   0  0  0  0  0  0  0  0  0  0  0  0
    7.8861   -7.9762   16.9989 C   0  0  0  0  0  0  0  0  0  0  0  0
   10.4539   -6.3601   17.7771 N   0  0  0  0  0  0  0  0  0  0  0  0
   10.1743   -3.9247   16.5028 N   0  0  0  0  0  0  0  0  0  0  0  0
    7.8670   -6.7440   16.1758 Cl  0  0  0  0  0  0  0  0  0  0  0  0
    7.0946   -8.6924   18.1230 C   0  0  0  0  0  0  0  0  0  0  0  0
   10.8128   -4.1796   17.3154 C   0  0  0  0  0  0  0  0  0  0  0  0
    6.8626   -8.7407   17.0893 C   0  0  0  0  0  0  0  0  0  0  0  0
   11.3607   -3.3903   22.4826 O   0  0  0  0  0  0  0  0  0  0  0  0
    9.5499   -6.6794   17.2579 S   0  0  0  0  0  0  0  0  0  0  0  0
   12.4313   -4.7306   20.1114 C   0  0  0  0  0  0  0  0  0  0  0  0
    3.6561   -9.9422   17.8345 C   0  0  0  0  0  0  0  0  0  0  0  0
   11.8610   -4.0048   22.3270 C   0  0  0  0  0  0  0  0  0  0  0  0
    8.8466   -4.5909   16.1373 C   0  0  0  0  0  0  0  0  0  0  0  0
    9.2669   -7.3073   17.5828 C   0  0  0  0  0  0  0  0  0  0  0  0
   12.1091   -4.9393   22.0028 He  0  0  0  0  0  0  0  0  0  0  0  0
   11.4524   -3.4578   24.3446 He  0  0  0  0  0  0  0  0  0  0  0  0
    4.3681   -9.5004   15.4207 He  0  0  0  0  0  0  0  0  0  0  0  0
    4.9878   -8.6759   18.0751 He  0  0  0  0  0  0  0  0  0  0  0  0
    6.2472   -9.1270   16.2219 He  0  0  0  0  0  0  0  0  0  0  0  0
  1  3  1  0
  1  4  1  0
  1  5  2  0
  1  9  1  0
  1 10  1  0
  1 18  4  0
  1 19  4  0
  2  6  4  0
  2  8  2  0
  2 12  3  0
  2 17  1  0
  3 11  3  0
  3 13  1  0
  3 17  3  0
  3 19  4  0
  4 18  3  0
  5  8  4  0
  6 12  2  0
  6 15  1  0
  6 16  4  0
  6 18  1  0
  7  8  1  0
  7 20  1  0
  8 12  1  0
  8 15  2  0
  8 18  2  0
  8 20  4  0
  9 13  2  0
  9 14  1  0
  9 15  4  0
 10 12  2  0
 10 19  4  0
 10 20  4  0
 11 12  4  0
 11 19  1  0
 12 15  3  0
 12 16  1  0
 12 18  2  0
 14 18  3  0
 17 18  4  0
M  END
$$$$

 Created by Python create_sdf_string function

 25 28  0  0  0  0  0  0  0  0999 V2000
   12.4839   -4.9413   21.7808 C   0  0  0  0  0  0  0  0  0  0  0  0
   11.1824   -3.6359   17.2941 C   0  0  0  0  0  0  0  0  0  0  0  0
   10.5771   -3.5943   20.1887 C   0  0  0  0  0  0  0  0  0  0  0  0
    9.4469   -4.9562   16.5569 C   0  0  0  0  0  0  0  0  0  0  0  0
   11.9872   -2.5642   17.1826 O   0  0  0  0  0  0  0  0  0  0  0  0
   10.6898   -3.3753   21.5558 C   0  0  0  0  0  0  0  0  0  0  0  0
   11.3823   -4.4738   19.6028 C   0  0  0  0  0  0  0  0  0  0  0  0
   11.1823   -3.4504   24.3478 C   0  0  0  0  0  0  0  0  0  0  0  0
    4.8251   -9.4379   16.0372 C   0  0  0  0  0  0  0  0  0  0  0  0
    8.2323   -8.4450   16.9212 C   0  0  0  0  0  0  0  0  0  0  0  0
   10.4102   -6.0563   18.0856 N   0  0  0  0  0  0  0  0  0  0  0  0
    5.0081   -9.0837   18.3284 C   0  0  0  0  0  0  0  0  0  0  0  0
   10.1594   -3.8920   16.4384 N   0  0  0  0  0  0  0  0  0  0  0  0
    7.8300   -6.3375   16.0371 C   0  0  0  0  0  0  0  0  0  0  0  0
    6.3288   -8.5971   18.1405 C   0  0  0  0  0  0  0  0  0  0  0  0
   11.1802   -4.6881   18.3336 C   0  0  0  0  0  0  0  0  0  0  0  0
    6.9133   -8.6800   17.0129 C   0  0  0  0  0  0  0  0  0  0  0  0
   11.7641   -3.6922   23.4757 O   0  0  0  0  0  0  0  0  0  0  0  0
    9.5987   -6.4254   17.5856 C   0  0  0  0  0  0  0  0  0  0  0  0
    6.1328   -9.0791   15.9508 C   0  0  0  0  0  0  0  0  0  0  0  0
   12.2886   -5.1755   20.3750 C   0  0  0  0  0  0  0  0  0  0  0  0
    4.1985   -9.4268   17.2706 C   0  0  0  0  0  0  0  0  0  0  0  0
   11.6293   -3.9768   22.2473 C   0  0  0  0  0  0  0  0  0  0  0  0
    8.3541   -5.1590   15.8963 C   0  0  0  0  0  0  0  0  0  0  0  0
    8.6018   -7.1838   16.9204 C   0  0  0  0  0  0  0  0  0  0  0  0
  1 21  4  0
  1 23  4  0
  2  5  2  0
  2 13  1  0
  2 16  1  0
  3  6  4  0
  3  7  4  0
  4 13  4  0
  4 19  4  0
  4 24  4  0
  6 23  4  0
  7 16  1  0
  7 21  4  0
  8 18  1  0
  9 20  4  0
  9 22  4  0
 10 17  1  0
 10 25  1  0
 11 16  4  0
 11 19  4  0
 12 15  4  0
 12 22  4  0
 14 24  4  0
 14 25  4  0
 15 17  4  0
 17 20  4  0
 18 23  1  0
 19 25  4  0
M  END
$$$$

 Created by Python create_sdf_string function

 25 25  0  0  0  0  0  0  0  0999 V2000
   12.4044   -5.3461   21.6093 O   0  0  0  0  0  0  0  0  0  0  0  0
   11.5244   -3.0635   17.7971 C   0  0  0  0  0  0  0  0  0  0  0  0
   10.9689   -3.0442   20.2142 F   0  0  0  0  0  0  0  0  0  0  0  0
    9.2281   -5.0071   17.0676 C   0  0  0  0  0  0  0  0  0  0  0  0
   11.7047   -2.4943   17.1980 O   0  0  0  0  0  0  0  0  0  0  0  0
   10.8048   -3.4346   21.5029 C   0  0  0  0  0  0  0  0  0  0  0  0
   10.8225   -3.6322   24.1995 N   0  0  0  0  0  0  0  0  0  0  0  0
    4.8659   -8.9698   16.4146 C   0  0  0  0  0  0  0  0  0  0  0  0
    9.7465   -5.8810   18.0383 N   0  0  0  0  0  0  0  0  0  0  0  0
   10.1152   -3.9383   16.6358 N   0  0  0  0  0  0  0  0  0  0  0  0
    6.2299   -8.6947   18.2252 Cl  0  0  0  0  0  0  0  0  0  0  0  0
   11.2356   -5.0815   18.3551 C   0  0  0  0  0  0  0  0  0  0  0  0
    7.0244   -8.7796   16.4051 C   0  0  0  0  0  0  0  0  0  0  0  0
    6.3189   -9.1537   15.8308 C   0  0  0  0  0  0  0  0  0  0  0  0
   12.6604   -5.1206   20.6066 C   0  0  0  0  0  0  0  0  0  0  0  0
    4.0387   -9.3134   17.4605 C   0  0  0  0  0  0  0  0  0  0  0  0
    8.1968   -5.7227   15.3520 S   0  0  0  0  0  0  0  0  0  0  0  0
    9.2503   -7.0659   16.8117 C   0  0  0  0  0  0  0  0  0  0  0  0
   11.6368   -4.2397   20.6697 He  0  0  0  0  0  0  0  0  0  0  0  0
    8.6207   -9.3317   16.8555 He  0  0  0  0  0  0  0  0  0  0  0  0
    4.8671   -8.9564   18.5647 He  0  0  0  0  0  0  0  0  0  0  0  0
    8.0701   -6.4609   16.2801 He  0  0  0  0  0  0  0  0  0  0  0  0
   11.7057   -4.6736   23.3444 He  0  0  0  0  0  0  0  0  0  0  0  0
   10.0110   -6.0622   17.1466 He  0  0  0  0  0  0  0  0  0  0  0  0
   11.8647   -3.7339   22.2654 He  0  0  0  0  0  0  0  0  0  0  0  0
  1  7  1  0
  1 11  1  0
  1 15  4  0
  1 16  1  0
  2 10  1  0
  2 12  1  0
  3  4  2  0
  3 12  3  0
  4  6  3  0
  5 13  3  0
  5 16  4  0
  6 12  3  0
  6 14  3  0
  7 16  3  0
  8 16  4  0
  9 10  4  0
  9 11  1  0
  9 12  4  0
  9 13  4  0
 11 13  4  0
 11 14  3  0
 12 14  3  0
 13 14  4  0
 15 16  1  0
 17 18  3  0
M  END
$$$$

 Created by Python create_sdf_string function

 25 28  0  0  0  0  0  0  0  0999 V2000
   12.5678   -5.1529   21.7863 C   0  0  0  0  0  0  0  0  0  0  0  0
   10.9499   -3.6331   17.5472 C   0  0  0  0  0  0  0  0  0  0  0  0
   10.9449   -3.4557   20.4499 C   0  0  0  0  0  0  0  0  0  0  0  0
    9.3489   -5.0507   16.5435 C   0  0  0  0  0  0  0  0  0  0  0  0
   11.5876   -2.5915   17.5086 O   0  0  0  0  0  0  0  0  0  0  0  0
   10.8946   -3.3075   21.7797 C   0  0  0  0  0  0  0  0  0  0  0  0
   11.4220   -4.4161   19.7853 C   0  0  0  0  0  0  0  0  0  0  0  0
   10.7692   -3.7007   24.4764 C   0  0  0  0  0  0  0  0  0  0  0  0
    4.7615   -9.2035   16.0777 C   0  0  0  0  0  0  0  0  0  0  0  0
    8.5943   -8.5287   16.8968 C   0  0  0  0  0  0  0  0  0  0  0  0
   10.4097   -5.9494   18.3621 N   0  0  0  0  0  0  0  0  0  0  0  0
    5.0716   -9.0479   18.3116 C   0  0  0  0  0  0  0  0  0  0  0  0
    9.9957   -3.8979   16.5486 N   0  0  0  0  0  0  0  0  0  0  0  0
    7.9112   -6.4936   15.6853 N   0  0  0  0  0  0  0  0  0  0  0  0
    6.3886   -8.7553   18.0912 C   0  0  0  0  0  0  0  0  0  0  0  0
   10.9926   -4.7428   18.5333 C   0  0  0  0  0  0  0  0  0  0  0  0
    7.0325   -8.7985   16.9676 C   0  0  0  0  0  0  0  0  0  0  0  0
   11.5880   -4.3663   23.7378 C   0  0  0  0  0  0  0  0  0  0  0  0
    9.5418   -6.1499   17.3192 N   0  0  0  0  0  0  0  0  0  0  0  0
    6.0941   -9.0811   15.9549 C   0  0  0  0  0  0  0  0  0  0  0  0
   12.3572   -5.2113   20.3237 C   0  0  0  0  0  0  0  0  0  0  0  0
    4.1622   -9.1638   17.2961 C   0  0  0  0  0  0  0  0  0  0  0  0
   11.6492   -4.2257   22.3938 C   0  0  0  0  0  0  0  0  0  0  0  0
    8.2541   -5.2162   15.6974 N   0  0  0  0  0  0  0  0  0  0  0  0
    8.7371   -7.1239   16.7159 C   0  0  0  0  0  0  0  0  0  0  0  0
  1 21  4  0
  1 23  4  0
  2  5  2  0
  2 13  4  0
  2 16  1  0
  3  6  4  0
  3  7  4  0
  4 13  4  0
  4 19  4  0
  4 24  4  0
  6 23  4  0
  7 16  1  0
  7 21  4  0
  8 18  1  0
  9 20  4  0
  9 22  4  0
 10 17  1  0
 10 25  1  0
 11 16  4  0
 11 19  4  0
 12 15  4  0
 12 22  4  0
 14 24  4  0
 14 25  4  0
 15 17  4  0
 17 20  4  0
 18 23  1  0
 19 25  4  0
M  END
$$$$

 Created by Python create_sdf_string function

 25 32  0  0  0  0  0  0  0  0999 V2000
   12.3995   -5.6724   21.7996 C   0  0  0  0  0  0  0  0  0  0  0  0
   10.5242   -3.8564   17.5207 N   0  0  0  0  0  0  0  0  0  0  0  0
   11.3060   -3.1122   20.8783 S   0  0  0  0  0  0  0  0  0  0  0  0
    9.4773   -5.5444   16.6004 C   0  0  0  0  0  0  0  0  0  0  0  0
   11.6973   -2.7908   17.8564 O   0  0  0  0  0  0  0  0  0  0  0  0
   10.5300   -3.1548   21.8507 C   0  0  0  0  0  0  0  0  0  0  0  0
   11.9286   -4.3323   19.5526 C   0  0  0  0  0  0  0  0  0  0  0  0
   10.5102   -3.6593   24.9198 C   0  0  0  0  0  0  0  0  0  0  0  0
    7.8693   -8.8451   16.9264 C   0  0  0  0  0  0  0  0  0  0  0  0
   10.3940   -5.6549   17.3578 N   0  0  0  0  0  0  0  0  0  0  0  0
    5.3214   -9.2172   17.8840 B   0  0  0  0  0  0  0  0  0  0  0  0
   10.1951   -4.2734   16.2960 N   0  0  0  0  0  0  0  0  0  0  0  0
    8.2400   -5.8568   15.3920 N   0  0  0  0  0  0  0  0  0  0  0  0
    6.8071   -8.7204   18.2768 C   0  0  0  0  0  0  0  0  0  0  0  0
   10.7557   -4.7391   18.6189 C   0  0  0  0  0  0  0  0  0  0  0  0
    7.0926   -8.4086   16.5033 C   0  0  0  0  0  0  0  0  0  0  0  0
    9.1526   -6.0609   17.1135 S   0  0  0  0  0  0  0  0  0  0  0  0
    5.8920   -9.3703   16.0047 C   0  0  0  0  0  0  0  0  0  0  0  0
   11.7619   -5.8617   19.9560 C   0  0  0  0  0  0  0  0  0  0  0  0
    3.7872   -9.3363   17.4484 F   0  0  0  0  0  0  0  0  0  0  0  0
    8.8661   -5.7328   15.9204 N   0  0  0  0  0  0  0  0  0  0  0  0
    4.2967   -9.0789   15.6687 He  0  0  0  0  0  0  0  0  0  0  0  0
   10.7221   -4.0797   23.9833 He  0  0  0  0  0  0  0  0  0  0  0  0
   11.8023   -4.2468   22.5998 He  0  0  0  0  0  0  0  0  0  0  0  0
    8.3095   -6.9322   17.2434 He  0  0  0  0  0  0  0  0  0  0  0  0
  1 10  4  0
  2  5  2  0
  2  7  3  0
  2 15  4  0
  2 17  2  0
  3  6  4  0
  3  7  4  0
  3 14  4  0
  4 10  2  0
  4 12  4  0
  4 17  4  0
  4 21  3  0
  5  7  4  0
  5  8  4  0
  6 12  3  0
  6 15  2  0
  7 18  3  0
  7 19  4  0
  7 21  3  0
  9 16  1  0
  9 17  1  0
 10 11  1  0
 10 12  3  0
 10 17  4  0
 11 13  1  0
 13 20  2  0
 13 21  4  0
 14 15  2  0
 14 16  4  0
 16 18  4  0
 17 19  1  0
 18 21  3  0
M  END
$$$$

 Created by Python create_sdf_string function

 25 28  0  0  0  0  0  0  0  0999 V2000
   12.0548   -5.3060   21.9343 C   0  0  0  0  0  0  0  0  0  0  0  0
   10.8587   -3.7932   17.5206 C   0  0  0  0  0  0  0  0  0  0  0  0
   10.8529   -3.3448   20.5269 C   0  0  0  0  0  0  0  0  0  0  0  0
    9.3591   -5.1436   16.4133 C   0  0  0  0  0  0  0  0  0  0  0  0
   11.4215   -2.5820   17.5830 O   0  0  0  0  0  0  0  0  0  0  0  0
   10.8852   -3.2586   21.8529 C   0  0  0  0  0  0  0  0  0  0  0  0
   11.2682   -4.4794   19.8948 C   0  0  0  0  0  0  0  0  0  0  0  0
   10.4759   -3.6455   24.6212 C   0  0  0  0  0  0  0  0  0  0  0  0
    4.5796   -9.2733   15.9106 C   0  0  0  0  0  0  0  0  0  0  0  0
    8.2427   -8.4637   16.8384 C   0  0  0  0  0  0  0  0  0  0  0  0
   10.1770   -5.9690   18.4314 N   0  0  0  0  0  0  0  0  0  0  0  0
    4.8390   -9.1846   18.1977 C   0  0  0  0  0  0  0  0  0  0  0  0
   10.1111   -4.0307   16.3764 N   0  0  0  0  0  0  0  0  0  0  0  0
    7.8791   -6.4327   15.7027 N   0  0  0  0  0  0  0  0  0  0  0  0
    6.1372   -8.7648   18.0813 C   0  0  0  0  0  0  0  0  0  0  0  0
   10.8456   -4.7522   18.6072 C   0  0  0  0  0  0  0  0  0  0  0  0
    6.7438   -8.7162   16.9232 C   0  0  0  0  0  0  0  0  0  0  0  0
   11.2423   -4.3832   23.9563 O   0  0  0  0  0  0  0  0  0  0  0  0
    9.3985   -6.1517   17.2774 C   0  0  0  0  0  0  0  0  0  0  0  0
    5.8800   -8.9589   15.8262 C   0  0  0  0  0  0  0  0  0  0  0  0
   11.9468   -5.3534   20.5135 C   0  0  0  0  0  0  0  0  0  0  0  0
    3.9838   -9.3908   17.1562 C   0  0  0  0  0  0  0  0  0  0  0  0
   11.4228   -4.3411   22.5588 C   0  0  0  0  0  0  0  0  0  0  0  0
    8.3349   -5.4028   15.5292 N   0  0  0  0  0  0  0  0  0  0  0  0
    8.5195   -7.0797   16.6668 C   0  0  0  0  0  0  0  0  0  0  0  0
  1 21  4  0
  1 23  4  0
  2  5  2  0
  2 13  4  0
  2 16  4  0
  3  6  4  0
  3  7  4  0
  4 13  4  0
  4 19  4  0
  4 24  4  0
  6 23  4  0
  7 16  1  0
  7 21  4  0
  8 18  1  0
  9 20  4  0
  9 22  4  0
 10 17  1  0
 10 25  1  0
 11 16  4  0
 11 19  4  0
 12 15  4  0
 12 22  4  0
 14 24  4  0
 14 25  4  0
 15 17  4  0
 17 20  4  0
 18 23  1  0
 19 25  4  0
M  END
$$$$

 Created by Python create_sdf_string function

 25 28  0  0  0  0  0  0  0  0999 V2000
   12.2975   -4.9793   21.4155 C   0  0  0  0  0  0  0  0  0  0  0  0
   10.7147   -3.4268   17.8987 C   0  0  0  0  0  0  0  0  0  0  0  0
   10.9771   -3.0348   20.4762 S   0  0  0  0  0  0  0  0  0  0  0  0
    9.0400   -5.2306   16.3783 C   0  0  0  0  0  0  0  0  0  0  0  0
   12.0740   -2.7088   16.8542 O   0  0  0  0  0  0  0  0  0  0  0  0
   11.2127   -3.6953   21.9201 C   0  0  0  0  0  0  0  0  0  0  0  0
    8.1765   -8.8826   17.1204 C   0  0  0  0  0  0  0  0  0  0  0  0
    6.4858   -8.7635   17.5637 C   0  0  0  0  0  0  0  0  0  0  0  0
   10.7663   -4.9332   18.7823 C   0  0  0  0  0  0  0  0  0  0  0  0
    7.0792   -8.8469   16.9337 C   0  0  0  0  0  0  0  0  0  0  0  0
   11.9585   -4.6815   23.3770 O   0  0  0  0  0  0  0  0  0  0  0  0
    8.8839   -6.5893   17.2577 C   0  0  0  0  0  0  0  0  0  0  0  0
    6.2620   -8.5078   15.4997 C   0  0  0  0  0  0  0  0  0  0  0  0
   12.9713   -5.5909   20.6304 C   0  0  0  0  0  0  0  0  0  0  0  0
    3.5283   -9.1468   16.9010 C   0  0  0  0  0  0  0  0  0  0  0  0
   11.3004   -3.7140   22.5747 C   0  0  0  0  0  0  0  0  0  0  0  0
    8.2640   -5.2956   16.2143 N   0  0  0  0  0  0  0  0  0  0  0  0
    8.8160   -7.1528   16.0750 O   0  0  0  0  0  0  0  0  0  0  0  0
   11.7975   -5.5057   19.2750 He  0  0  0  0  0  0  0  0  0  0  0  0
   11.8026   -3.9747   25.1726 He  0  0  0  0  0  0  0  0  0  0  0  0
    4.4921   -9.4358   16.0494 He  0  0  0  0  0  0  0  0  0  0  0  0
   10.2548   -5.8862   18.5882 He  0  0  0  0  0  0  0  0  0  0  0  0
    5.2005   -9.4688   17.3965 He  0  0  0  0  0  0  0  0  0  0  0  0
   10.0909   -3.8501   16.8618 He  0  0  0  0  0  0  0  0  0  0  0  0
    7.8765   -6.3676   15.8241 He  0  0  0  0  0  0  0  0  0  0  0  0
  1  7  3  0
  1 16  4  0
  2  4  1  0
  2  5  1  0
  2 17  1  0
  2 18  2  0
  3  6  4  0
  3 14  4  0
  4  9  3  0
  4 12  4  0
  4 17  4  0
  5  7  3  0
  6 13  2  0
  6 16  4  0
  7 10  1  0
  7 11  3  0
  7 18  1  0
  8  9  4  0
  8 10  2  0
  8 11  2  0
  8 16  3  0
 10 13  4  0
 10 15  3  0
 10 18  3  0
 12 15  4  0
 12 18  4  0
 13 14  3  0
 13 16  1  0
M  END
$$$$

 Created by Python create_sdf_string function

 25 28  0  0  0  0  0  0  0  0999 V2000
   12.6095   -5.2061   21.6929 C   0  0  0  0  0  0  0  0  0  0  0  0
   10.8921   -3.8926   17.6149 C   0  0  0  0  0  0  0  0  0  0  0  0
   10.9545   -3.4832   20.5415 C   0  0  0  0  0  0  0  0  0  0  0  0
    9.0828   -4.9744   16.5405 C   0  0  0  0  0  0  0  0  0  0  0  0
   11.6717   -2.8979   17.5372 O   0  0  0  0  0  0  0  0  0  0  0  0
   10.9515   -3.3899   21.8715 C   0  0  0  0  0  0  0  0  0  0  0  0
   11.4191   -4.5754   19.8513 C   0  0  0  0  0  0  0  0  0  0  0  0
   11.4360   -3.9293   24.7391 C   0  0  0  0  0  0  0  0  0  0  0  0
    4.5773   -9.0228   15.6815 C   0  0  0  0  0  0  0  0  0  0  0  0
    8.2413   -8.5192   16.7691 C   0  0  0  0  0  0  0  0  0  0  0  0
   10.2423   -6.1531   18.3422 C   0  0  0  0  0  0  0  0  0  0  0  0
    4.8516   -9.3584   17.9424 C   0  0  0  0  0  0  0  0  0  0  0  0
    9.7883   -3.8758   16.6986 N   0  0  0  0  0  0  0  0  0  0  0  0
    7.7850   -6.3501   15.6491 N   0  0  0  0  0  0  0  0  0  0  0  0
    6.1059   -8.9507   17.9092 C   0  0  0  0  0  0  0  0  0  0  0  0
   10.9419   -4.8678   18.5839 C   0  0  0  0  0  0  0  0  0  0  0  0
    6.7962   -8.7765   16.7711 C   0  0  0  0  0  0  0  0  0  0  0  0
   11.8260   -4.5495   23.8548 O   0  0  0  0  0  0  0  0  0  0  0  0
    9.2838   -6.2253   17.2669 C   0  0  0  0  0  0  0  0  0  0  0  0
    5.9094   -8.8002   15.6495 C   0  0  0  0  0  0  0  0  0  0  0  0
   12.3029   -5.2836   20.3643 C   0  0  0  0  0  0  0  0  0  0  0  0
    4.0229   -9.2738   16.9133 C   0  0  0  0  0  0  0  0  0  0  0  0
   11.7971   -4.3612   22.4589 C   0  0  0  0  0  0  0  0  0  0  0  0
    8.1384   -5.1301   15.6661 N   0  0  0  0  0  0  0  0  0  0  0  0
    8.4609   -7.0617   16.5940 C   0  0  0  0  0  0  0  0  0  0  0  0
  1 21  4  0
  1 23  4  0
  2  5  1  0
  2 13  4  0
  2 16  4  0
  3  6  4  0
  3  7  4  0
  4 13  4  0
  4 19  4  0
  4 24  4  0
  6 23  4  0
  7 16  1  0
  7 21  4  0
  8 18  1  0
  9 20  4  0
  9 22  4  0
 10 17  1  0
 10 25  1  0
 11 16  4  0
 11 19  4  0
 12 15  4  0
 12 22  4  0
 14 24  4  0
 14 25  4  0
 15 17  4  0
 17 20  4  0
 18 23  1  0
 19 25  4  0
M  END
$$$$

 Created by Python create_sdf_string function

 25 38  0  0  0  0  0  0  0  0999 V2000
   12.3924   -5.2523   21.3957 C   0  0  0  0  0  0  0  0  0  0  0  0
   10.9362   -3.3981   18.1321 C   0  0  0  0  0  0  0  0  0  0  0  0
   11.3841   -3.6285   20.7489 O   0  0  0  0  0  0  0  0  0  0  0  0
    9.2130   -5.1649   16.7044 C   0  0  0  0  0  0  0  0  0  0  0  0
   11.6052   -3.4685   17.2978 O   0  0  0  0  0  0  0  0  0  0  0  0
   10.9106   -3.1194   21.4601 C   0  0  0  0  0  0  0  0  0  0  0  0
   11.5707   -4.6987   20.4173 C   0  0  0  0  0  0  0  0  0  0  0  0
    4.7478   -9.2903   15.4329 C   0  0  0  0  0  0  0  0  0  0  0  0
    8.8186   -7.8632   16.9158 C   0  0  0  0  0  0  0  0  0  0  0  0
    9.6262   -4.5138   16.3954 N   0  0  0  0  0  0  0  0  0  0  0  0
    8.0160   -6.6702   15.6344 N   0  0  0  0  0  0  0  0  0  0  0  0
    6.0684   -9.2477   18.2255 F   0  0  0  0  0  0  0  0  0  0  0  0
   10.2472   -4.3675   18.3620 B   0  0  0  0  0  0  0  0  0  0  0  0
    6.6258   -9.0145   16.4689 C   0  0  0  0  0  0  0  0  0  0  0  0
   12.1035   -4.9137   23.6731 O   0  0  0  0  0  0  0  0  0  0  0  0
    8.9896   -6.2738   17.2315 C   0  0  0  0  0  0  0  0  0  0  0  0
   12.3920   -5.1810   20.5831 C   0  0  0  0  0  0  0  0  0  0  0  0
    4.5309   -8.8120   16.8060 C   0  0  0  0  0  0  0  0  0  0  0  0
   12.1647   -3.6865   22.5987 C   0  0  0  0  0  0  0  0  0  0  0  0
    8.7635   -6.7087   17.3942 C   0  0  0  0  0  0  0  0  0  0  0  0
   11.5002   -4.0495   24.8643 He  0  0  0  0  0  0  0  0  0  0  0  0
   10.9365   -5.9509   18.3347 He  0  0  0  0  0  0  0  0  0  0  0  0
    5.1971   -9.3432   18.0677 He  0  0  0  0  0  0  0  0  0  0  0  0
    5.7891   -9.2882   15.5154 He  0  0  0  0  0  0  0  0  0  0  0  0
    8.3196   -5.2058   15.3378 He  0  0  0  0  0  0  0  0  0  0  0  0
  1  3  3  0
  1  4  3  0
  1  8  2  0
  1 17  4  0
  1 18  3  0
  1 19  2  0
  2  5  1  0
  2 10  4  0
  2 14  4  0
  2 15  4  0
  3  6  4  0
  3  7  4  0
  3 12  3  0
  3 15  1  0
  4  5  1  0
  4  7  2  0
  4 10  4  0
  4 14  2  0
  4 16  4  0
  6 19  4  0
  7 12  3  0
  7 13  1  0
  7 17  4  0
  8 18  4  0
  8 20  1  0
  9 12  1  0
  9 19  4  0
  9 20  1  0
 10 14  3  0
 10 19  1  0
 12 14  4  0
 12 16  4  0
 12 19  4  0
 13 15  1  0
 14 18  4  0
 15 19  1  0
 16 18  4  0
 16 20  4  0
M  END
$$$$

 Created by Python create_sdf_string function

 25 28  0  0  0  0  0  0  0  0999 V2000
   12.6257   -5.2188   21.7288 C   0  0  0  0  0  0  0  0  0  0  0  0
   10.7957   -3.8121   17.6184 C   0  0  0  0  0  0  0  0  0  0  0  0
   10.8776   -3.4495   20.6904 C   0  0  0  0  0  0  0  0  0  0  0  0
    9.1613   -5.0952   16.4758 C   0  0  0  0  0  0  0  0  0  0  0  0
   11.5674   -2.7074   17.4968 O   0  0  0  0  0  0  0  0  0  0  0  0
   11.0765   -3.3243   21.9948 C   0  0  0  0  0  0  0  0  0  0  0  0
   11.3594   -4.4621   19.9033 C   0  0  0  0  0  0  0  0  0  0  0  0
   11.3552   -3.9664   24.6757 C   0  0  0  0  0  0  0  0  0  0  0  0
    4.7691   -9.2471   15.6605 C   0  0  0  0  0  0  0  0  0  0  0  0
    8.4818   -8.4079   17.0745 C   0  0  0  0  0  0  0  0  0  0  0  0
   10.1004   -5.8693   18.5604 C   0  0  0  0  0  0  0  0  0  0  0  0
    4.8725   -9.1777   17.9807 C   0  0  0  0  0  0  0  0  0  0  0  0
    9.8414   -3.9315   16.5742 N   0  0  0  0  0  0  0  0  0  0  0  0
    7.8766   -6.5997   15.6088 N   0  0  0  0  0  0  0  0  0  0  0  0
    6.1909   -8.7989   17.9614 C   0  0  0  0  0  0  0  0  0  0  0  0
   10.7934   -4.7086   18.6903 C   0  0  0  0  0  0  0  0  0  0  0  0
    6.8654   -8.7076   16.8394 C   0  0  0  0  0  0  0  0  0  0  0  0
   12.0948   -4.4599   23.8158 O   0  0  0  0  0  0  0  0  0  0  0  0
    9.3217   -6.1054   17.3872 C   0  0  0  0  0  0  0  0  0  0  0  0
    6.0852   -8.9572   15.6093 C   0  0  0  0  0  0  0  0  0  0  0  0
   12.3163   -5.2713   20.3519 C   0  0  0  0  0  0  0  0  0  0  0  0
    4.1388   -9.3095   16.9095 C   0  0  0  0  0  0  0  0  0  0  0  0
   11.9256   -4.3317   22.5038 C   0  0  0  0  0  0  0  0  0  0  0  0
    8.2439   -5.3443   15.5294 N   0  0  0  0  0  0  0  0  0  0  0  0
    8.6012   -7.1034   16.7853 C   0  0  0  0  0  0  0  0  0  0  0  0
  1 21  4  0
  1 23  4  0
  2  5  1  0
  2 13  4  0
  2 16  4  0
  3  6  4  0
  3  7  4  0
  4 13  4  0
  4 19  4  0
  4 24  4  0
  6 23  4  0
  7 16  1  0
  7 21  4  0
  8 18  1  0
  9 20  4  0
  9 22  4  0
 10 17  1  0
 10 25  1  0
 11 16  4  0
 11 19  4  0
 12 15  4  0
 12 22  4  0
 14 24  4  0
 14 25  4  0
 15 17  4  0
 17 20  4  0
 18 23  1  0
 19 25  4  0
M  END
$$$$

 Created by Python create_sdf_string function

 25 55  0  0  0  0  0  0  0  0999 V2000
   12.2717   -5.5601   21.7098 C   0  0  0  0  0  0  0  0  0  0  0  0
   10.8755   -3.9015   17.6737 C   0  0  0  0  0  0  0  0  0  0  0  0
    8.6920   -5.1404   16.4163 C   0  0  0  0  0  0  0  0  0  0  0  0
   11.2874   -2.3969   18.0094 O   0  0  0  0  0  0  0  0  0  0  0  0
   10.9376   -3.3967   21.8714 F   0  0  0  0  0  0  0  0  0  0  0  0
   11.8835   -4.3125   20.0025 C   0  0  0  0  0  0  0  0  0  0  0  0
   11.8708   -3.4792   24.4206 C   0  0  0  0  0  0  0  0  0  0  0  0
    4.6297   -8.6613   15.3612 C   0  0  0  0  0  0  0  0  0  0  0  0
    8.0724   -8.2585   17.4934 C   0  0  0  0  0  0  0  0  0  0  0  0
   10.2427   -5.3994   18.8192 F   0  0  0  0  0  0  0  0  0  0  0  0
    4.9538   -9.5745   17.8115 P   0  0  0  0  0  0  0  0  0  0  0  0
   10.7872   -3.6549   15.9831 N   0  0  0  0  0  0  0  0  0  0  0  0
    8.0787   -6.2202   15.7140 O   0  0  0  0  0  0  0  0  0  0  0  0
    6.5512   -9.4666   17.7277 C   0  0  0  0  0  0  0  0  0  0  0  0
   10.5575   -4.9796   18.7550 C   0  0  0  0  0  0  0  0  0  0  0  0
    7.0228   -8.7701   16.3557 C   0  0  0  0  0  0  0  0  0  0  0  0
   12.2552   -4.8843   23.4952 O   0  0  0  0  0  0  0  0  0  0  0  0
    9.5249   -6.1447   17.2679 C   0  0  0  0  0  0  0  0  0  0  0  0
    6.1403   -8.7051   15.6673 C   0  0  0  0  0  0  0  0  0  0  0  0
   12.1039   -5.1299   20.3125 O   0  0  0  0  0  0  0  0  0  0  0  0
   11.9900   -3.7722   22.2535 Cl  0  0  0  0  0  0  0  0  0  0  0  0
    8.5484   -5.3452   15.3349 N   0  0  0  0  0  0  0  0  0  0  0  0
    8.1647   -7.3653   17.0112 C   0  0  0  0  0  0  0  0  0  0  0  0
   10.8576   -2.9999   21.1369 He  0  0  0  0  0  0  0  0  0  0  0  0
    4.1235   -9.1936   17.3387 He  0  0  0  0  0  0  0  0  0  0  0  0
  1  3  2  0
  1 11  2  0
  1 20  4  0
  1 21  4  0
  1 23  4  0
  2  3  4  0
  2  8  1  0
  2 12  4  0
  2 13  3  0
  2 17  1  0
  2 19  4  0
  2 22  1  0
  2 23  1  0
  3  7  3  0
  3 11  2  0
  3 18  4  0
  3 20  2  0
  3 21  1  0
  3 22  4  0
  4 11  1  0
  4 12  2  0
  4 16  1  0
  5  6  3  0
  5  8  3  0
  5 15  4  0
  5 19  3  0
  5 21  3  0
  5 22  1  0
  6 15  1  0
  6 20  4  0
  6 23  3  0
  7  9  3  0
  7 17  1  0
  8 19  4  0
  9 23  1  0
 10 15  4  0
 10 18  4  0
 10 20  1  0
 11 14  4  0
 11 15  4  0
 11 20  4  0
 11 23  3  0
 12 17  2  0
 13 18  1  0
 13 22  4  0
 14 15  4  0
 14 16  4  0
 14 17  4  0
 16 17  1  0
 16 18  1  0
 16 19  4  0
 17 21  1  0
 17 23  1  0
 18 23  4  0
 21 22  2  0
M  END
$$$$

 Created by Python create_sdf_string function

 25 28  0  0  0  0  0  0  0  0999 V2000
   12.5536   -5.2606   21.6878 C   0  0  0  0  0  0  0  0  0  0  0  0
   10.7949   -3.6769   17.6681 C   0  0  0  0  0  0  0  0  0  0  0  0
   10.8021   -3.4103   20.7411 C   0  0  0  0  0  0  0  0  0  0  0  0
    9.3598   -5.0019   16.4042 C   0  0  0  0  0  0  0  0  0  0  0  0
   11.3856   -2.4971   17.8323 O   0  0  0  0  0  0  0  0  0  0  0  0
   11.0885   -3.3174   22.0295 C   0  0  0  0  0  0  0  0  0  0  0  0
   11.2291   -4.4135   19.9357 C   0  0  0  0  0  0  0  0  0  0  0  0
   11.7193   -3.6193   24.6214 C   0  0  0  0  0  0  0  0  0  0  0  0
    4.6695   -8.8136   15.7100 C   0  0  0  0  0  0  0  0  0  0  0  0
    8.2829   -8.3252   17.0885 C   0  0  0  0  0  0  0  0  0  0  0  0
    9.9775   -5.8462   18.5703 C   0  0  0  0  0  0  0  0  0  0  0  0
    4.8494   -9.6152   17.8950 C   0  0  0  0  0  0  0  0  0  0  0  0
   10.1232   -3.9467   16.4441 N   0  0  0  0  0  0  0  0  0  0  0  0
    7.9151   -6.3551   15.6579 N   0  0  0  0  0  0  0  0  0  0  0  0
    6.1453   -9.1826   17.8957 C   0  0  0  0  0  0  0  0  0  0  0  0
   10.7198   -4.6224   18.7843 C   0  0  0  0  0  0  0  0  0  0  0  0
    6.8326   -8.6695   16.8848 C   0  0  0  0  0  0  0  0  0  0  0  0
   12.1715   -4.5077   23.7807 O   0  0  0  0  0  0  0  0  0  0  0  0
    9.3214   -6.0214   17.3486 C   0  0  0  0  0  0  0  0  0  0  0  0
    5.9788   -8.4962   15.7048 C   0  0  0  0  0  0  0  0  0  0  0  0
   12.2413   -5.2865   20.3779 C   0  0  0  0  0  0  0  0  0  0  0  0
    4.0627   -9.3078   16.8451 C   0  0  0  0  0  0  0  0  0  0  0  0
   11.9227   -4.3611   22.5017 C   0  0  0  0  0  0  0  0  0  0  0  0
    8.4484   -5.1773   15.4694 N   0  0  0  0  0  0  0  0  0  0  0  0
    8.4892   -6.9517   16.7508 C   0  0  0  0  0  0  0  0  0  0  0  0
  1 21  4  0
  1 23  4  0
  2  5  2  0
  2 13  4  0
  2 16  4  0
  3  6  4  0
  3  7  4  0
  4 13  4  0
  4 19  4  0
  4 24  4  0
  6 23  4  0
  7 16  1  0
  7 21  4  0
  8 18  1  0
  9 20  4  0
  9 22  4  0
 10 17  1  0
 10 25  1  0
 11 16  4  0
 11 19  4  0
 12 15  4  0
 12 22  4  0
 14 24  4  0
 14 25  4  0
 15 17  4  0
 17 20  4  0
 18 23  1  0
 19 25  4  0
M  END
$$$$

 Created by Python create_sdf_string function

 25 41  0  0  0  0  0  0  0  0999 V2000
   10.3391   -3.4520   17.5399 C   0  0  0  0  0  0  0  0  0  0  0  0
   11.1270   -3.4648   21.2857 C   0  0  0  0  0  0  0  0  0  0  0  0
    9.2704   -4.8743   16.2277 C   0  0  0  0  0  0  0  0  0  0  0  0
   11.5874   -1.9583   17.9666 O   0  0  0  0  0  0  0  0  0  0  0  0
   11.5438   -3.5670   24.5789 C   0  0  0  0  0  0  0  0  0  0  0  0
    4.6514   -8.4607   15.8872 C   0  0  0  0  0  0  0  0  0  0  0  0
    8.5900   -8.4208   17.2605 N   0  0  0  0  0  0  0  0  0  0  0  0
   10.3717   -5.5486   18.8339 C   0  0  0  0  0  0  0  0  0  0  0  0
   10.1222   -4.2012   16.4838 N   0  0  0  0  0  0  0  0  0  0  0  0
    8.1042   -6.2951   16.0977 N   0  0  0  0  0  0  0  0  0  0  0  0
    6.1184   -9.0841   17.4554 C   0  0  0  0  0  0  0  0  0  0  0  0
   10.9471   -4.4847   18.5496 C   0  0  0  0  0  0  0  0  0  0  0  0
    6.7187   -8.7787   16.9135 C   0  0  0  0  0  0  0  0  0  0  0  0
    9.4603   -5.9346   17.1506 C   0  0  0  0  0  0  0  0  0  0  0  0
    6.1393   -8.9467   15.7721 C   0  0  0  0  0  0  0  0  0  0  0  0
   12.1460   -5.7102   20.1451 N   0  0  0  0  0  0  0  0  0  0  0  0
    4.0715   -8.9746   17.0757 C   0  0  0  0  0  0  0  0  0  0  0  0
   11.8686   -3.7116   22.7770 C   0  0  0  0  0  0  0  0  0  0  0  0
    8.9171   -5.0033   15.6248 N   0  0  0  0  0  0  0  0  0  0  0  0
    8.2403   -6.8548   16.6504 C   0  0  0  0  0  0  0  0  0  0  0  0
   12.1069   -5.4132   21.6772 He  0  0  0  0  0  0  0  0  0  0  0  0
   11.2042   -3.1318   21.5297 He  0  0  0  0  0  0  0  0  0  0  0  0
   11.1272   -4.7285   19.7351 He  0  0  0  0  0  0  0  0  0  0  0  0
    4.3428   -9.4348   17.9699 He  0  0  0  0  0  0  0  0  0  0  0  0
   12.1928   -4.8635   23.6602 He  0  0  0  0  0  0  0  0  0  0  0  0
  1  9  4  0
  1 12  4  0
  1 16  3  0
  2  3  1  0
  2  9  1  0
  2 11  1  0
  2 13  1  0
  2 16  2  0
  3  9  4  0
  3 14  4  0
  3 19  4  0
  4  7  4  0
  5  8  1  0
  5 13  2  0
  5 16  3  0
  6 15  4  0
  6 17  3  0
  6 18  3  0
  6 20  4  0
  7  8  1  0
  7 11  2  0
  7 13  1  0
  7 16  1  0
  7 20  1  0
  8  9  1  0
  8 12  4  0
  8 14  4  0
  8 17  1  0
  9 11  3  0
 10 12  2  0
 10 14  4  0
 10 19  4  0
 10 20  4  0
 11 13  4  0
 11 17  2  0
 12 15  2  0
 13 15  4  0
 14 15  2  0
 14 20  4  0
 15 20  3  0
 16 17  3  0
M  END
$$$$

 Created by Python create_sdf_string function

 25 28  0  0  0  0  0  0  0  0999 V2000
   12.4296   -5.3390   21.7714 C   0  0  0  0  0  0  0  0  0  0  0  0
   10.7718   -3.5495   17.7738 C   0  0  0  0  0  0  0  0  0  0  0  0
   10.9276   -3.2758   20.7631 C   0  0  0  0  0  0  0  0  0  0  0  0
    9.3114   -4.9051   16.4301 C   0  0  0  0  0  0  0  0  0  0  0  0
   11.3323   -2.4095   17.9094 O   0  0  0  0  0  0  0  0  0  0  0  0
   11.1248   -3.2713   21.9955 C   0  0  0  0  0  0  0  0  0  0  0  0
   11.2510   -4.4171   19.9754 C   0  0  0  0  0  0  0  0  0  0  0  0
   11.4411   -3.4662   24.7145 C   0  0  0  0  0  0  0  0  0  0  0  0
    4.6772   -8.7134   15.7155 C   0  0  0  0  0  0  0  0  0  0  0  0
    8.3018   -8.2930   17.1809 S   0  0  0  0  0  0  0  0  0  0  0  0
   10.0908   -5.7847   18.4742 C   0  0  0  0  0  0  0  0  0  0  0  0
    4.7612   -9.3306   17.9573 C   0  0  0  0  0  0  0  0  0  0  0  0
    9.9822   -3.7720   16.6270 N   0  0  0  0  0  0  0  0  0  0  0  0
    7.9353   -6.3060   15.6829 N   0  0  0  0  0  0  0  0  0  0  0  0
    6.0091   -8.9791   17.9824 C   0  0  0  0  0  0  0  0  0  0  0  0
   10.7408   -4.5828   18.8266 C   0  0  0  0  0  0  0  0  0  0  0  0
    6.7628   -8.5978   16.9611 C   0  0  0  0  0  0  0  0  0  0  0  0
   12.0301   -4.4374   23.9021 O   0  0  0  0  0  0  0  0  0  0  0  0
    9.3819   -5.9732   17.3062 C   0  0  0  0  0  0  0  0  0  0  0  0
    6.0115   -8.5015   15.7817 C   0  0  0  0  0  0  0  0  0  0  0  0
   12.0899   -5.4187   20.5117 C   0  0  0  0  0  0  0  0  0  0  0  0
    4.0146   -9.0614   16.8859 C   0  0  0  0  0  0  0  0  0  0  0  0
   11.8336   -4.3405   22.5489 C   0  0  0  0  0  0  0  0  0  0  0  0
    8.3971   -5.0518   15.5087 N   0  0  0  0  0  0  0  0  0  0  0  0
    8.5711   -6.8714   16.7299 C   0  0  0  0  0  0  0  0  0  0  0  0
  1 21  4  0
  1 23  4  0
  2  5  2  0
  2 13  4  0
  2 16  4  0
  3  6  4  0
  3  7  4  0
  4 13  4  0
  4 19  4  0
  4 24  4  0
  6 23  4  0
  7 16  1  0
  7 21  4  0
  8 18  1  0
  9 20  4  0
  9 22  4  0
 10 17  1  0
 10 25  1  0
 11 16  4  0
 11 19  4  0
 12 15  4  0
 12 22  4  0
 14 24  4  0
 14 25  4  0
 15 17  4  0
 17 20  4  0
 18 23  1  0
 19 25  4  0
M  END
$$$$

 Created by Python create_sdf_string function

 25 35  0  0  0  0  0  0  0  0999 V2000
   13.0317   -5.1921   21.7251 F   0  0  0  0  0  0  0  0  0  0  0  0
   10.5176   -3.5707   17.9022 C   0  0  0  0  0  0  0  0  0  0  0  0
    9.2362   -4.8100   16.4450 C   0  0  0  0  0  0  0  0  0  0  0  0
   11.1372   -3.5249   22.0209 C   0  0  0  0  0  0  0  0  0  0  0  0
   11.7078   -4.5340   19.3343 F   0  0  0  0  0  0  0  0  0  0  0  0
   11.3998   -2.7861   25.1524 C   0  0  0  0  0  0  0  0  0  0  0  0
    4.4310   -8.6669   15.5801 C   0  0  0  0  0  0  0  0  0  0  0  0
    8.2408   -8.4652   17.0736 S   0  0  0  0  0  0  0  0  0  0  0  0
   10.6700   -5.2984   18.0240 C   0  0  0  0  0  0  0  0  0  0  0  0
    4.2653   -9.3071   17.7101 Cl  0  0  0  0  0  0  0  0  0  0  0  0
    9.7510   -3.8911   16.4033 N   0  0  0  0  0  0  0  0  0  0  0  0
    7.8908   -6.0218   15.1251 N   0  0  0  0  0  0  0  0  0  0  0  0
    5.9766   -9.4763   18.2848 C   0  0  0  0  0  0  0  0  0  0  0  0
   10.3247   -4.5135   18.5653 C   0  0  0  0  0  0  0  0  0  0  0  0
    6.8767   -8.8764   16.7804 N   0  0  0  0  0  0  0  0  0  0  0  0
   11.7406   -4.1762   24.0169 O   0  0  0  0  0  0  0  0  0  0  0  0
    9.4045   -5.9761   17.2106 C   0  0  0  0  0  0  0  0  0  0  0  0
    5.8416   -8.6637   15.6518 O   0  0  0  0  0  0  0  0  0  0  0  0
   12.0702   -5.3354   20.0989 C   0  0  0  0  0  0  0  0  0  0  0  0
   11.8973   -4.4405   23.1406 C   0  0  0  0  0  0  0  0  0  0  0  0
    8.5315   -5.1699   15.6729 N   0  0  0  0  0  0  0  0  0  0  0  0
   10.4271   -3.3168   20.4792 He  0  0  0  0  0  0  0  0  0  0  0  0
   10.7113   -2.4119   17.8306 He  0  0  0  0  0  0  0  0  0  0  0  0
    4.4191   -9.1879   17.1534 He  0  0  0  0  0  0  0  0  0  0  0  0
    8.4967   -6.7251   16.9483 He  0  0  0  0  0  0  0  0  0  0  0  0
  1 11  3  0
  1 19  4  0
  1 20  4  0
  2 14  4  0
  3  6  3  0
  3 11  4  0
  3 17  3  0
  3 21  4  0
  4 16  4  0
  4 20  4  0
  5 14  1  0
  5 19  4  0
  6  9  3  0
  6 16  4  0
  6 18  4  0
  6 21  2  0
  7  8  1  0
  7 11  3  0
  7 14  2  0
  7 17  2  0
  8 15  1  0
  8 20  4  0
  9 15  1  0
  9 19  4  0
 10 12  3  0
 10 13  4  0
 10 14  2  0
 11 19  2  0
 12 21  4  0
 13 15  4  0
 14 21  3  0
 15 18  4  0
 17 20  1  0
 18 20  4  0
 19 21  2  0
M  END
$$$$

 Created by Python create_sdf_string function

 25 28  0  0  0  0  0  0  0  0999 V2000
   12.5601   -5.1234   21.7307 C   0  0  0  0  0  0  0  0  0  0  0  0
   10.6339   -3.5622   17.7594 C   0  0  0  0  0  0  0  0  0  0  0  0
   10.5818   -3.5288   20.7538 C   0  0  0  0  0  0  0  0  0  0  0  0
    9.1344   -4.8876   16.4253 C   0  0  0  0  0  0  0  0  0  0  0  0
   11.1958   -2.4453   17.9610 O   0  0  0  0  0  0  0  0  0  0  0  0
   10.8973   -3.4240   22.0085 C   0  0  0  0  0  0  0  0  0  0  0  0
   11.2294   -4.4635   19.9232 C   0  0  0  0  0  0  0  0  0  0  0  0
   11.3299   -3.3054   24.6484 C   0  0  0  0  0  0  0  0  0  0  0  0
    4.5454   -8.7897   15.7480 C   0  0  0  0  0  0  0  0  0  0  0  0
    8.2759   -8.3689   17.1284 S   0  0  0  0  0  0  0  0  0  0  0  0
   10.1212   -5.9005   18.3563 C   0  0  0  0  0  0  0  0  0  0  0  0
    4.6761   -9.4141   17.9547 C   0  0  0  0  0  0  0  0  0  0  0  0
    9.7766   -3.7354   16.6324 N   0  0  0  0  0  0  0  0  0  0  0  0
    7.7577   -6.3169   15.5788 N   0  0  0  0  0  0  0  0  0  0  0  0
    5.9522   -9.0260   17.9903 C   0  0  0  0  0  0  0  0  0  0  0  0
   10.7582   -4.6753   18.7089 C   0  0  0  0  0  0  0  0  0  0  0  0
    6.6547   -8.6346   16.9245 C   0  0  0  0  0  0  0  0  0  0  0  0
   12.0360   -4.2768   23.8822 O   0  0  0  0  0  0  0  0  0  0  0  0
    9.3379   -6.0137   17.2238 C   0  0  0  0  0  0  0  0  0  0  0  0
    5.8755   -8.5855   15.7197 C   0  0  0  0  0  0  0  0  0  0  0  0
   12.2371   -5.1968   20.4030 C   0  0  0  0  0  0  0  0  0  0  0  0
    3.9321   -9.1660   16.9041 C   0  0  0  0  0  0  0  0  0  0  0  0
   11.8188   -4.2912   22.5194 C   0  0  0  0  0  0  0  0  0  0  0  0
    8.1808   -5.0990   15.5292 N   0  0  0  0  0  0  0  0  0  0  0  0
    8.4517   -6.9200   16.6386 C   0  0  0  0  0  0  0  0  0  0  0  0
  1 21  4  0
  1 23  4  0
  2  5  2  0
  2 13  4  0
  2 16  4  0
  3  6  4  0
  3  7  4  0
  4 13  4  0
  4 19  4  0
  4 24  4  0
  6 23  4  0
  7 16  1  0
  7 21  4  0
  8 18  1  0
  9 20  4  0
  9 22  4  0
 10 17  1  0
 10 25  1  0
 11 16  4  0
 11 19  4  0
 12 15  4  0
 12 22  4  0
 14 24  4  0
 14 25  4  0
 15 17  4  0
 17 20  4  0
 18 23  1  0
 19 25  4  0
M  END
$$$$

 Created by Python create_sdf_string function

 25 30  0  0  0  0  0  0  0  0999 V2000
   12.5239   -5.3412   21.7750 C   0  0  0  0  0  0  0  0  0  0  0  0
   10.6823   -3.5967   17.7537 C   0  0  0  0  0  0  0  0  0  0  0  0
    9.0966   -5.2566   16.0571 C   0  0  0  0  0  0  0  0  0  0  0  0
   11.4501   -2.4573   18.2455 O   0  0  0  0  0  0  0  0  0  0  0  0
   11.3428   -4.1844   22.3027 N   0  0  0  0  0  0  0  0  0  0  0  0
   11.0550   -4.1766   19.8880 C   0  0  0  0  0  0  0  0  0  0  0  0
   11.3389   -3.5137   24.2126 C   0  0  0  0  0  0  0  0  0  0  0  0
    4.1155   -8.4967   15.6745 F   0  0  0  0  0  0  0  0  0  0  0  0
    8.1202   -8.2297   17.0274 S   0  0  0  0  0  0  0  0  0  0  0  0
    9.9620   -6.0026   18.7932 C   0  0  0  0  0  0  0  0  0  0  0  0
    9.3773   -4.1110   16.3712 N   0  0  0  0  0  0  0  0  0  0  0  0
    7.8705   -6.2489   15.9042 P   0  0  0  0  0  0  0  0  0  0  0  0
    5.6422   -9.0340   18.2155 C   0  0  0  0  0  0  0  0  0  0  0  0
    6.8704   -8.6288   17.4059 C   0  0  0  0  0  0  0  0  0  0  0  0
   12.0144   -4.0806   23.9407 O   0  0  0  0  0  0  0  0  0  0  0  0
    3.9944   -8.7387   16.8586 C   0  0  0  0  0  0  0  0  0  0  0  0
   12.1293   -4.7230   22.6272 C   0  0  0  0  0  0  0  0  0  0  0  0
    7.7797   -5.3123   16.3151 N   0  0  0  0  0  0  0  0  0  0  0  0
    8.2552   -6.3053   16.5573 C   0  0  0  0  0  0  0  0  0  0  0  0
   10.7453   -3.4341   21.6540 He  0  0  0  0  0  0  0  0  0  0  0  0
    4.6845   -9.8017   18.1923 He  0  0  0  0  0  0  0  0  0  0  0  0
   10.7103   -4.5993   18.7213 He  0  0  0  0  0  0  0  0  0  0  0  0
    9.3297   -5.3300   16.8191 He  0  0  0  0  0  0  0  0  0  0  0  0
    5.7050   -8.3707   15.9155 He  0  0  0  0  0  0  0  0  0  0  0  0
   12.6465   -4.7520   20.3595 He  0  0  0  0  0  0  0  0  0  0  0  0
  1  2  1  0
  1 11  4  0
  1 16  3  0
  1 17  4  0
  2  4  2  0
  2  9  2  0
  2 11  4  0
  2 15  1  0
  2 17  3  0
  3 11  4  0
  3 18  4  0
  4  9  1  0
  4 15  3  0
  4 19  2  0
  5  6  3  0
  5 17  4  0
  7 15  1  0
  7 19  2  0
  8 16  4  0
  9 19  1  0
 11 13  4  0
 12 18  4  0
 12 19  4  0
 13 14  4  0
 13 18  1  0
 13 19  2  0
 14 18  3  0
 15 17  1  0
 15 19  1  0
 17 18  1  0
M  END
$$$$

 Created by Python create_sdf_string function

 25 28  0  0  0  0  0  0  0  0999 V2000
   12.7830   -5.1174   21.6066 C   0  0  0  0  0  0  0  0  0  0  0  0
   10.6061   -3.5966   17.8144 C   0  0  0  0  0  0  0  0  0  0  0  0
   10.4595   -3.7717   20.9431 C   0  0  0  0  0  0  0  0  0  0  0  0
    9.0316   -4.8797   16.4964 C   0  0  0  0  0  0  0  0  0  0  0  0
   11.2773   -2.4685   17.9632 O   0  0  0  0  0  0  0  0  0  0  0  0
   10.8461   -3.6756   22.1352 C   0  0  0  0  0  0  0  0  0  0  0  0
   11.1833   -4.4789   19.9670 C   0  0  0  0  0  0  0  0  0  0  0  0
   11.2426   -3.6477   24.6094 C   0  0  0  0  0  0  0  0  0  0  0  0
    4.3743   -8.5997   15.9423 C   0  0  0  0  0  0  0  0  0  0  0  0
    8.1313   -8.2951   17.2236 S   0  0  0  0  0  0  0  0  0  0  0  0
   10.0049   -5.8413   18.4799 C   0  0  0  0  0  0  0  0  0  0  0  0
    4.6083   -9.5081   18.0602 C   0  0  0  0  0  0  0  0  0  0  0  0
    9.7678   -3.7513   16.6525 N   0  0  0  0  0  0  0  0  0  0  0  0
    7.5491   -6.2271   15.7526 N   0  0  0  0  0  0  0  0  0  0  0  0
    5.8519   -9.0879   18.1251 C   0  0  0  0  0  0  0  0  0  0  0  0
   10.6819   -4.6337   18.8253 C   0  0  0  0  0  0  0  0  0  0  0  0
    6.4981   -8.5710   17.0806 C   0  0  0  0  0  0  0  0  0  0  0  0
   12.1203   -4.4234   23.8464 O   0  0  0  0  0  0  0  0  0  0  0  0
    9.1682   -5.9465   17.3551 N   0  0  0  0  0  0  0  0  0  0  0  0
    5.6526   -8.3055   15.9509 C   0  0  0  0  0  0  0  0  0  0  0  0
   12.3717   -5.1272   20.3525 C   0  0  0  0  0  0  0  0  0  0  0  0
    3.7976   -9.1843   17.0267 C   0  0  0  0  0  0  0  0  0  0  0  0
   11.9671   -4.4160   22.5166 C   0  0  0  0  0  0  0  0  0  0  0  0
    8.0732   -5.0214   15.6156 N   0  0  0  0  0  0  0  0  0  0  0  0
    8.2596   -6.8288   16.8075 C   0  0  0  0  0  0  0  0  0  0  0  0
  1 21  4  0
  1 23  4  0
  2  5  2  0
  2 13  4  0
  2 16  4  0
  3  6  4  0
  3  7  4  0
  4 13  4  0
  4 19  4  0
  4 24  4  0
  6 23  4  0
  7 16  1  0
  7 21  4  0
  8 18  1  0
  9 20  4  0
  9 22  4  0
 10 17  1  0
 10 25  1  0
 11 16  4  0
 11 19  4  0
 12 15  4  0
 12 22  4  0
 14 24  4  0
 14 25  4  0
 15 17  4  0
 17 20  4  0
 18 23  1  0
 19 25  4  0
M  END
$$$$

 Created by Python create_sdf_string function

 25 40  0  0  0  0  0  0  0  0999 V2000
   12.6023   -5.2673   21.6855 C   0  0  0  0  0  0  0  0  0  0  0  0
   11.0223   -3.5983   17.9867 C   0  0  0  0  0  0  0  0  0  0  0  0
   10.4759   -4.3268   20.8668 C   0  0  0  0  0  0  0  0  0  0  0  0
    8.8846   -4.8050   16.4682 C   0  0  0  0  0  0  0  0  0  0  0  0
   11.0393   -4.6339   20.6565 C   0  0  0  0  0  0  0  0  0  0  0  0
   11.3137   -3.5194   24.6811 C   0  0  0  0  0  0  0  0  0  0  0  0
    4.3203   -8.6743   16.3769 N   0  0  0  0  0  0  0  0  0  0  0  0
    8.3534   -7.9903   17.1666 S   0  0  0  0  0  0  0  0  0  0  0  0
    9.6773   -5.6298   18.5051 C   0  0  0  0  0  0  0  0  0  0  0  0
    4.2332   -9.6352   18.2187 C   0  0  0  0  0  0  0  0  0  0  0  0
    7.3670   -6.4176   15.8058 N   0  0  0  0  0  0  0  0  0  0  0  0
    6.1923   -8.8886   18.2079 C   0  0  0  0  0  0  0  0  0  0  0  0
    6.3547   -9.0256   17.7424 C   0  0  0  0  0  0  0  0  0  0  0  0
   12.6494   -4.3884   24.2746 N   0  0  0  0  0  0  0  0  0  0  0  0
    6.0071   -8.3962   15.9143 C   0  0  0  0  0  0  0  0  0  0  0  0
   12.3657   -5.1769   20.4802 B   0  0  0  0  0  0  0  0  0  0  0  0
    3.6805   -8.8927   16.7668 C   0  0  0  0  0  0  0  0  0  0  0  0
   11.8127   -4.4830   22.0173 C   0  0  0  0  0  0  0  0  0  0  0  0
    8.4355   -4.9013   15.5418 N   0  0  0  0  0  0  0  0  0  0  0  0
    8.0577   -6.8256   17.0748 C   0  0  0  0  0  0  0  0  0  0  0  0
   11.1736   -2.6394   17.6644 He  0  0  0  0  0  0  0  0  0  0  0  0
   10.8179   -3.8001   22.3956 He  0  0  0  0  0  0  0  0  0  0  0  0
    9.0889   -3.7830   16.4196 He  0  0  0  0  0  0  0  0  0  0  0  0
   10.5672   -4.9036   18.8313 He  0  0  0  0  0  0  0  0  0  0  0  0
    9.0886   -6.0591   17.2547 He  0  0  0  0  0  0  0  0  0  0  0  0
  1 12  4  0
  1 16  4  0
  1 18  4  0
  1 19  4  0
  2  3  2  0
  2  9  3  0
  2 11  1  0
  2 14  3  0
  2 15  2  0
  2 20  3  0
  3  5  4  0
  3 20  2  0
  4 18  3  0
  4 19  4  0
  5  6  4  0
  5  7  1  0
  5 12  2  0
  5 16  3  0
  6 11  1  0
  6 14  1  0
  6 15  2  0
  7 10  1  0
  7 16  2  0
  7 17  4  0
  7 20  1  0
  8  9  3  0
  8 11  1  0
  8 13  1  0
  9 14  1  0
 10 12  4  0
 10 14  4  0
 10 17  4  0
 10 19  1  0
 11 20  2  0
 12 13  4  0
 13 14  3  0
 13 15  2  0
 14 15  2  0
 14 18  1  0
 16 18  4  0
M  END
$$$$

 Created by Python create_sdf_string function

 25 28  0  0  0  0  0  0  0  0999 V2000
   12.7785   -5.1001   21.6988 C   0  0  0  0  0  0  0  0  0  0  0  0
   10.5866   -3.7490   17.8618 C   0  0  0  0  0  0  0  0  0  0  0  0
   10.3334   -3.9581   21.0179 C   0  0  0  0  0  0  0  0  0  0  0  0
    8.9897   -4.8644   16.4710 C   0  0  0  0  0  0  0  0  0  0  0  0
   11.3407   -2.6803   18.0130 O   0  0  0  0  0  0  0  0  0  0  0  0
   10.7319   -3.8680   22.3007 C   0  0  0  0  0  0  0  0  0  0  0  0
   11.0462   -4.6232   20.0700 C   0  0  0  0  0  0  0  0  0  0  0  0
   11.4796   -3.6849   24.7989 C   0  0  0  0  0  0  0  0  0  0  0  0
    4.3152   -8.6926   15.9962 C   0  0  0  0  0  0  0  0  0  0  0  0
    7.9848   -8.2392   17.4060 S   0  0  0  0  0  0  0  0  0  0  0  0
    9.8045   -5.8931   18.5171 C   0  0  0  0  0  0  0  0  0  0  0  0
    4.4749   -9.4423   18.1428 C   0  0  0  0  0  0  0  0  0  0  0  0
    9.8145   -3.7995   16.6673 N   0  0  0  0  0  0  0  0  0  0  0  0
    7.5197   -6.2960   15.7136 N   0  0  0  0  0  0  0  0  0  0  0  0
    5.7284   -9.0789   18.1922 C   0  0  0  0  0  0  0  0  0  0  0  0
   10.5504   -4.7651   18.8577 C   0  0  0  0  0  0  0  0  0  0  0  0
    6.4316   -8.6299   17.1887 C   0  0  0  0  0  0  0  0  0  0  0  0
   12.3754   -4.3580   23.9191 O   0  0  0  0  0  0  0  0  0  0  0  0
    9.0441   -5.9271   17.3605 N   0  0  0  0  0  0  0  0  0  0  0  0
    5.6346   -8.5263   16.0560 C   0  0  0  0  0  0  0  0  0  0  0  0
   12.2659   -5.1639   20.4043 C   0  0  0  0  0  0  0  0  0  0  0  0
    3.7113   -9.1412   17.0961 C   0  0  0  0  0  0  0  0  0  0  0  0
   11.9537   -4.4618   22.5724 C   0  0  0  0  0  0  0  0  0  0  0  0
    8.0855   -5.0186   15.5704 N   0  0  0  0  0  0  0  0  0  0  0  0
    8.1789   -6.8181   16.8221 C   0  0  0  0  0  0  0  0  0  0  0  0
  1 21  4  0
  1 23  4  0
  2  5  2  0
  2 13  4  0
  2 16  4  0
  3  6  4  0
  3  7  4  0
  4 13  4  0
  4 19  4  0
  4 24  4  0
  6 23  4  0
  7 16  1  0
  7 21  4  0
  8 18  1  0
  9 20  4  0
  9 22  4  0
 10 17  1  0
 10 25  1  0
 11 16  4  0
 11 19  4  0
 12 15  4  0
 12 22  4  0
 14 24  4  0
 14 25  4  0
 15 17  4  0
 17 20  4  0
 18 23  1  0
 19 25  4  0
M  END
$$$$

 Created by Python create_sdf_string function

 25 49  0  0  0  0  0  0  0  0999 V2000
   12.7900   -4.8018   21.5697 C   0  0  0  0  0  0  0  0  0  0  0  0
    9.8047   -3.7720   18.0133 S   0  0  0  0  0  0  0  0  0  0  0  0
   10.3317   -3.6423   21.2857 C   0  0  0  0  0  0  0  0  0  0  0  0
    9.3118   -5.2962   16.2811 C   0  0  0  0  0  0  0  0  0  0  0  0
   11.3409   -2.3571   18.0360 O   0  0  0  0  0  0  0  0  0  0  0  0
   11.0869   -3.6084   22.4384 C   0  0  0  0  0  0  0  0  0  0  0  0
   11.4672   -3.8546   24.6524 C   0  0  0  0  0  0  0  0  0  0  0  0
    4.1453   -8.5185   15.9075 C   0  0  0  0  0  0  0  0  0  0  0  0
    7.8822   -8.4302   16.9017 S   0  0  0  0  0  0  0  0  0  0  0  0
    9.3572   -5.8999   18.2960 C   0  0  0  0  0  0  0  0  0  0  0  0
    4.1146   -9.7234   18.1630 C   0  0  0  0  0  0  0  0  0  0  0  0
    9.6673   -3.9939   16.4870 N   0  0  0  0  0  0  0  0  0  0  0  0
    7.2797   -6.5753   15.4174 N   0  0  0  0  0  0  0  0  0  0  0  0
    5.6840   -8.9097   18.3185 C   0  0  0  0  0  0  0  0  0  0  0  0
   10.1502   -4.6689   18.9090 C   0  0  0  0  0  0  0  0  0  0  0  0
   12.4229   -4.2438   23.5493 O   0  0  0  0  0  0  0  0  0  0  0  0
    9.1147   -5.4866   17.3080 C   0  0  0  0  0  0  0  0  0  0  0  0
    5.9706   -8.8271   16.1698 C   0  0  0  0  0  0  0  0  0  0  0  0
   12.2830   -5.4351   20.4261 C   0  0  0  0  0  0  0  0  0  0  0  0
    3.7234   -9.1274   16.6987 C   0  0  0  0  0  0  0  0  0  0  0  0
   11.8214   -4.6519   22.2762 C   0  0  0  0  0  0  0  0  0  0  0  0
    7.8201   -4.9915   15.8573 Cl  0  0  0  0  0  0  0  0  0  0  0  0
    8.0528   -6.7032   16.7248 C   0  0  0  0  0  0  0  0  0  0  0  0
   11.0158   -4.5576   19.8193 He  0  0  0  0  0  0  0  0  0  0  0  0
    6.6181   -8.4162   17.3124 He  0  0  0  0  0  0  0  0  0  0  0  0
  1  3  4  0
  1  5  1  0
  1 14  1  0
  1 16  4  0
  1 19  4  0
  1 21  4  0
  2  5  2  0
  2  9  4  0
  2 10  2  0
  2 12  3  0
  2 15  4  0
  2 18  3  0
  2 23  4  0
  3  6  4  0
  3 10  4  0
  3 20  1  0
  4  9  3  0
  4 11  2  0
  4 12  3  0
  4 17  4  0
  4 22  4  0
  5  6  4  0
  5 14  2  0
  6 15  4  0
  6 21  2  0
  7 17  4  0
  8 15  1  0
  8 18  4  0
  8 20  2  0
  9 14  2  0
  9 17  4  0
  9 19  3  0
  9 23  1  0
 10 14  1  0
 10 15  4  0
 10 17  4  0
 10 21  4  0
 11 14  4  0
 11 20  4  0
 12 15  4  0
 12 17  4  0
 12 23  4  0
 13 23  4  0
 14 17  3  0
 14 19  3  0
 14 22  3  0
 15 21  4  0
 16 20  4  0
 17 23  4  0
M  END
$$$$

 Created by Python create_sdf_string function

 25 28  0  0  0  0  0  0  0  0999 V2000
   12.7124   -5.0999   21.5591 C   0  0  0  0  0  0  0  0  0  0  0  0
   10.4183   -3.6883   17.8373 C   0  0  0  0  0  0  0  0  0  0  0  0
   10.2848   -3.8231   20.9813 C   0  0  0  0  0  0  0  0  0  0  0  0
    8.8777   -4.9323   16.4098 C   0  0  0  0  0  0  0  0  0  0  0  0
   11.0557   -2.5445   18.0999 O   0  0  0  0  0  0  0  0  0  0  0  0
   10.7941   -3.6893   22.2303 C   0  0  0  0  0  0  0  0  0  0  0  0
   10.9575   -4.5616   20.0086 C   0  0  0  0  0  0  0  0  0  0  0  0
   11.5991   -3.8979   24.7178 C   0  0  0  0  0  0  0  0  0  0  0  0
    4.2432   -8.8172   15.8676 C   0  0  0  0  0  0  0  0  0  0  0  0
    7.8972   -8.2984   17.2135 S   0  0  0  0  0  0  0  0  0  0  0  0
    9.6853   -5.9223   18.5090 C   0  0  0  0  0  0  0  0  0  0  0  0
    4.4429   -9.4693   18.0799 C   0  0  0  0  0  0  0  0  0  0  0  0
    9.6583   -3.7991   16.6634 N   0  0  0  0  0  0  0  0  0  0  0  0
    7.4688   -6.3661   15.5648 N   0  0  0  0  0  0  0  0  0  0  0  0
    5.6893   -9.0787   18.1112 C   0  0  0  0  0  0  0  0  0  0  0  0
   10.4082   -4.7555   18.7916 C   0  0  0  0  0  0  0  0  0  0  0  0
    6.3618   -8.6443   17.0724 C   0  0  0  0  0  0  0  0  0  0  0  0
   12.4872   -4.4154   23.7375 O   0  0  0  0  0  0  0  0  0  0  0  0
    8.9190   -5.9609   17.3248 C   0  0  0  0  0  0  0  0  0  0  0  0
    5.5510   -8.5663   15.8730 C   0  0  0  0  0  0  0  0  0  0  0  0
   12.1567   -5.1692   20.3146 C   0  0  0  0  0  0  0  0  0  0  0  0
    3.6280   -9.2462   17.0373 C   0  0  0  0  0  0  0  0  0  0  0  0
   11.9829   -4.4068   22.4870 C   0  0  0  0  0  0  0  0  0  0  0  0
    8.0643   -5.1280   15.4219 N   0  0  0  0  0  0  0  0  0  0  0  0
    8.0709   -6.8973   16.7280 C   0  0  0  0  0  0  0  0  0  0  0  0
  1 21  4  0
  1 23  4  0
  2  5  2  0
  2 13  4  0
  2 16  4  0
  3  6  4  0
  3  7  4  0
  4 13  4  0
  4 19  4  0
  4 24  4  0
  6 23  4  0
  7 16  1  0
  7 21  4  0
  8 18  1  0
  9 20  4  0
  9 22  4  0
 10 17  1  0
 10 25  1  0
 11 16  4  0
 11 19  4  0
 12 15  4  0
 12 22  4  0
 14 24  4  0
 14 25  4  0
 15 17  4  0
 17 20  4  0
 18 23  1  0
 19 25  4  0
M  END
$$$$

 Created by Python create_sdf_string function

 25 38  0  0  0  0  0  0  0  0999 V2000
   12.7090   -5.3261   21.8240 C   0  0  0  0  0  0  0  0  0  0  0  0
   10.3733   -3.4487   17.6980 C   0  0  0  0  0  0  0  0  0  0  0  0
   10.2752   -4.0002   20.9540 C   0  0  0  0  0  0  0  0  0  0  0  0
    8.9134   -5.3769   16.4231 O   0  0  0  0  0  0  0  0  0  0  0  0
   11.0136   -2.3107   18.2767 O   0  0  0  0  0  0  0  0  0  0  0  0
   11.1702   -3.9378   22.9328 C   0  0  0  0  0  0  0  0  0  0  0  0
   10.4541   -4.3565   19.8485 C   0  0  0  0  0  0  0  0  0  0  0  0
   11.5474   -3.8405   24.3916 C   0  0  0  0  0  0  0  0  0  0  0  0
    8.0541   -8.2705   17.3143 S   0  0  0  0  0  0  0  0  0  0  0  0
    9.8228   -5.9862   18.3877 P   0  0  0  0  0  0  0  0  0  0  0  0
    4.7481   -9.4473   18.5244 C   0  0  0  0  0  0  0  0  0  0  0  0
    9.9119   -3.5946   16.6874 Br  0  0  0  0  0  0  0  0  0  0  0  0
    7.5497   -6.1269   15.5668 N   0  0  0  0  0  0  0  0  0  0  0  0
   10.1662   -4.7291   18.9546 C   0  0  0  0  0  0  0  0  0  0  0  0
    6.1951   -8.4746   17.1301 C   0  0  0  0  0  0  0  0  0  0  0  0
   12.5835   -4.6829   23.8851 O   0  0  0  0  0  0  0  0  0  0  0  0
    8.6637   -5.6549   17.6646 N   0  0  0  0  0  0  0  0  0  0  0  0
    6.1112   -8.1968   15.7212 C   0  0  0  0  0  0  0  0  0  0  0  0
   12.7393   -5.2946   20.5020 C   0  0  0  0  0  0  0  0  0  0  0  0
    4.0057   -9.0298   17.4957 C   0  0  0  0  0  0  0  0  0  0  0  0
   12.3917   -4.4916   22.3587 F   0  0  0  0  0  0  0  0  0  0  0  0
    4.6009   -8.2791   16.1806 He  0  0  0  0  0  0  0  0  0  0  0  0
    5.4006   -8.9352   18.3803 He  0  0  0  0  0  0  0  0  0  0  0  0
    8.0157   -5.2167   15.5550 He  0  0  0  0  0  0  0  0  0  0  0  0
    7.9376   -6.7076   16.2726 He  0  0  0  0  0  0  0  0  0  0  0  0
  1 18  2  0
  1 21  4  0
  2  5  2  0
  2 14  4  0
  3  6  4  0
  3 10  1  0
  3 13  1  0
  3 20  4  0
  4 12  2  0
  4 17  4  0
  5  6  3  0
  5  9  3  0
  5 12  3  0
  5 17  3  0
  5 21  2  0
  6 10  4  0
  6 13  3  0
  6 18  4  0
  6 21  4  0
  7 14  4  0
  7 19  4  0
  8 16  1  0
  9 14  2  0
  9 15  1  0
 10 14  4  0
 10 17  4  0
 10 19  2  0
 10 21  4  0
 11 20  4  0
 13 15  2  0
 13 19  1  0
 14 18  2  0
 15 18  4  0
 15 20  1  0
 15 21  3  0
 16 21  4  0
 17 21  1  0
 20 21  3  0
M  END
$$$$

 Created by Python create_sdf_string function

 25 28  0  0  0  0  0  0  0  0999 V2000
   12.8295   -5.1831   21.5746 C   0  0  0  0  0  0  0  0  0  0  0  0
   10.4788   -3.6323   17.9381 C   0  0  0  0  0  0  0  0  0  0  0  0
   10.3735   -3.9077   21.0894 C   0  0  0  0  0  0  0  0  0  0  0  0
    9.0217   -4.8505   16.4561 C   0  0  0  0  0  0  0  0  0  0  0  0
   11.1073   -2.5116   18.1943 O   0  0  0  0  0  0  0  0  0  0  0  0
   10.8547   -3.9049   22.3118 C   0  0  0  0  0  0  0  0  0  0  0  0
   11.0149   -4.6397   20.0400 C   0  0  0  0  0  0  0  0  0  0  0  0
   11.6591   -3.9481   24.7605 C   0  0  0  0  0  0  0  0  0  0  0  0
    4.2422   -8.6215   16.1178 C   0  0  0  0  0  0  0  0  0  0  0  0
    8.0204   -8.2129   17.1838 S   0  0  0  0  0  0  0  0  0  0  0  0
    9.6793   -5.9043   18.5091 C   0  0  0  0  0  0  0  0  0  0  0  0
    4.5537   -9.4075   18.2169 C   0  0  0  0  0  0  0  0  0  0  0  0
    9.7738   -3.7246   16.7005 N   0  0  0  0  0  0  0  0  0  0  0  0
    7.5475   -6.1825   15.5578 N   0  0  0  0  0  0  0  0  0  0  0  0
    5.7992   -9.0071   18.2462 C   0  0  0  0  0  0  0  0  0  0  0  0
   10.4176   -4.7519   18.8434 C   0  0  0  0  0  0  0  0  0  0  0  0
    6.4088   -8.4809   17.1613 C   0  0  0  0  0  0  0  0  0  0  0  0
   12.5533   -4.5772   23.8225 O   0  0  0  0  0  0  0  0  0  0  0  0
    8.9799   -5.9362   17.3160 N   0  0  0  0  0  0  0  0  0  0  0  0
    5.5442   -8.2827   16.0554 C   0  0  0  0  0  0  0  0  0  0  0  0
   12.2699   -5.2058   20.3133 C   0  0  0  0  0  0  0  0  0  0  0  0
    3.7059   -9.1595   17.2025 C   0  0  0  0  0  0  0  0  0  0  0  0
   12.0908   -4.5701   22.5361 C   0  0  0  0  0  0  0  0  0  0  0  0
    8.1589   -5.0021   15.4722 N   0  0  0  0  0  0  0  0  0  0  0  0
    8.1461   -6.7553   16.6910 C   0  0  0  0  0  0  0  0  0  0  0  0
  1 21  4  0
  1 23  4  0
  2  5  2  0
  2 13  4  0
  2 16  4  0
  3  6  4  0
  3  7  4  0
  4 13  4  0
  4 19  4  0
  4 24  4  0
  6 23  4  0
  7 16  1  0
  7 21  4  0
  8 18  1  0
  9 20  4  0
  9 22  4  0
 10 17  1  0
 10 25  1  0
 11 16  4  0
 11 19  4  0
 12 15  4  0
 12 22  4  0
 14 24  4  0
 14 25  4  0
 15 17  4  0
 17 20  4  0
 18 23  1  0
 19 25  4  0
M  END
$$$$

 Created by Python create_sdf_string function

 25 37  0  0  0  0  0  0  0  0999 V2000
   10.4835   -3.7062   18.2095 C   0  0  0  0  0  0  0  0  0  0  0  0
   10.4025   -4.4783   20.8837 C   0  0  0  0  0  0  0  0  0  0  0  0
    9.0544   -4.4546   16.3990 C   0  0  0  0  0  0  0  0  0  0  0  0
   10.8911   -3.0730   18.2787 O   0  0  0  0  0  0  0  0  0  0  0  0
   11.0736   -3.9888   22.1018 C   0  0  0  0  0  0  0  0  0  0  0  0
   10.8919   -4.7536   20.0362 S   0  0  0  0  0  0  0  0  0  0  0  0
   11.4721   -3.6685   24.6119 C   0  0  0  0  0  0  0  0  0  0  0  0
    4.2988   -8.6534   16.2178 C   0  0  0  0  0  0  0  0  0  0  0  0
    7.8594   -8.6629   17.3733 S   0  0  0  0  0  0  0  0  0  0  0  0
    9.8241   -5.8917   18.4799 C   0  0  0  0  0  0  0  0  0  0  0  0
    4.3679   -9.5146   18.2985 C   0  0  0  0  0  0  0  0  0  0  0  0
    7.8546   -5.8554   15.6695 N   0  0  0  0  0  0  0  0  0  0  0  0
    6.0092   -9.4969   18.5464 C   0  0  0  0  0  0  0  0  0  0  0  0
   11.0247   -4.9401   18.8457 C   0  0  0  0  0  0  0  0  0  0  0  0
    6.5214   -8.4209   17.1840 S   0  0  0  0  0  0  0  0  0  0  0  0
   12.7268   -4.4583   23.8476 O   0  0  0  0  0  0  0  0  0  0  0  0
    9.1896   -5.9810   17.4529 N   0  0  0  0  0  0  0  0  0  0  0  0
    5.8087   -7.9609   15.7352 C   0  0  0  0  0  0  0  0  0  0  0  0
   12.2843   -5.3297   20.3781 C   0  0  0  0  0  0  0  0  0  0  0  0
    8.5668   -5.0467   15.4161 N   0  0  0  0  0  0  0  0  0  0  0  0
    8.0147   -6.8570   16.6888 C   0  0  0  0  0  0  0  0  0  0  0  0
   12.7114   -5.0522   21.7029 He  0  0  0  0  0  0  0  0  0  0  0  0
    9.8678   -4.0530   16.8704 He  0  0  0  0  0  0  0  0  0  0  0  0
    3.7683   -9.4685   16.8339 He  0  0  0  0  0  0  0  0  0  0  0  0
   11.8480   -4.3066   22.6071 He  0  0  0  0  0  0  0  0  0  0  0  0
  1  2  4  0
  1  6  3  0
  1 13  2  0
  1 14  4  0
  2  5  4  0
  2  6  4  0
  2 20  4  0
  3 17  4  0
  3 20  4  0
  4  5  3  0
  4  7  4  0
  4 10  3  0
  4 12  4  0
  5  9  2  0
  5 21  1  0
  6  8  1  0
  6 14  1  0
  6 19  4  0
  7  8  2  0
  7  9  3  0
  7 16  1  0
  7 21  4  0
  8 18  4  0
  9 15  1  0
  9 21  1  0
 10 17  4  0
 11 13  4  0
 11 17  2  0
 12 20  4  0
 12 21  4  0
 13 15  4  0
 14 15  3  0
 14 20  3  0
 15 19  4  0
 17 21  4  0
 18 20  1  0
 20 21  1  0
M  END
$$$$

 Created by Python create_sdf_string function

 25 28  0  0  0  0  0  0  0  0999 V2000
   12.8716   -5.1363   21.6412 C   0  0  0  0  0  0  0  0  0  0  0  0
   10.5870   -3.7820   17.9634 C   0  0  0  0  0  0  0  0  0  0  0  0
   10.3464   -4.1054   21.0324 C   0  0  0  0  0  0  0  0  0  0  0  0
    9.1232   -4.8923   16.5002 C   0  0  0  0  0  0  0  0  0  0  0  0
   11.2079   -2.6510   18.2931 O   0  0  0  0  0  0  0  0  0  0  0  0
   10.7967   -3.9740   22.2801 C   0  0  0  0  0  0  0  0  0  0  0  0
   11.1207   -4.7919   20.0531 C   0  0  0  0  0  0  0  0  0  0  0  0
   11.6172   -3.7317   24.7333 C   0  0  0  0  0  0  0  0  0  0  0  0
    4.2001   -8.6686   16.0221 C   0  0  0  0  0  0  0  0  0  0  0  0
    7.9467   -8.2602   17.3052 S   0  0  0  0  0  0  0  0  0  0  0  0
    9.8463   -6.0717   18.4209 C   0  0  0  0  0  0  0  0  0  0  0  0
    4.5027   -9.7194   18.0920 C   0  0  0  0  0  0  0  0  0  0  0  0
    9.8655   -3.8115   16.7805 N   0  0  0  0  0  0  0  0  0  0  0  0
    7.6876   -6.2140   15.5965 N   0  0  0  0  0  0  0  0  0  0  0  0
    5.7579   -9.2667   18.1923 C   0  0  0  0  0  0  0  0  0  0  0  0
   10.5834   -4.9195   18.8340 C   0  0  0  0  0  0  0  0  0  0  0  0
    6.3397   -8.5666   17.1495 C   0  0  0  0  0  0  0  0  0  0  0  0
   12.5386   -4.3192   23.8161 O   0  0  0  0  0  0  0  0  0  0  0  0
    9.1225   -6.0276   17.2963 N   0  0  0  0  0  0  0  0  0  0  0  0
    5.4918   -8.2712   16.0219 C   0  0  0  0  0  0  0  0  0  0  0  0
   12.3623   -5.2772   20.3860 C   0  0  0  0  0  0  0  0  0  0  0  0
    3.6854   -9.3689   17.0710 C   0  0  0  0  0  0  0  0  0  0  0  0
   12.0659   -4.4852   22.5670 C   0  0  0  0  0  0  0  0  0  0  0  0
    8.2395   -4.9874   15.5185 N   0  0  0  0  0  0  0  0  0  0  0  0
    8.2134   -6.8299   16.7206 C   0  0  0  0  0  0  0  0  0  0  0  0
  1 21  4  0
  1 23  4  0
  2  5  2  0
  2 13  4  0
  2 16  4  0
  3  6  4  0
  3  7  4  0
  4 13  4  0
  4 19  4  0
  4 24  4  0
  6 23  4  0
  7 16  1  0
  7 21  4  0
  8 18  1  0
  9 20  4  0
  9 22  4  0
 10 17  1  0
 10 25  1  0
 11 16  4  0
 11 19  4  0
 12 15  4  0
 12 22  4  0
 14 24  4  0
 14 25  4  0
 15 17  4  0
 17 20  4  0
 18 23  1  0
 19 25  4  0
M  END
$$$$

 Created by Python create_sdf_string function

 25 39  0  0  0  0  0  0  0  0999 V2000
   13.5175   -5.3654   21.7372 C   0  0  0  0  0  0  0  0  0  0  0  0
   10.7461   -4.3398   21.5260 C   0  0  0  0  0  0  0  0  0  0  0  0
    9.1084   -4.5615   16.6504 C   0  0  0  0  0  0  0  0  0  0  0  0
   10.9852   -2.9700   18.5584 C   0  0  0  0  0  0  0  0  0  0  0  0
   10.8039   -3.9332   22.1470 C   0  0  0  0  0  0  0  0  0  0  0  0
   11.3232   -4.8053   20.1116 C   0  0  0  0  0  0  0  0  0  0  0  0
   11.7155   -3.8359   24.5636 C   0  0  0  0  0  0  0  0  0  0  0  0
    4.6615   -8.8244   15.9963 C   0  0  0  0  0  0  0  0  0  0  0  0
    9.6348   -6.0116   18.7204 C   0  0  0  0  0  0  0  0  0  0  0  0
    4.4257  -10.1268   18.0457 C   0  0  0  0  0  0  0  0  0  0  0  0
    9.8636   -3.6712   16.6217 Cl  0  0  0  0  0  0  0  0  0  0  0  0
    7.9637   -6.2369   15.5409 N   0  0  0  0  0  0  0  0  0  0  0  0
    6.0623   -9.8449   17.9035 C   0  0  0  0  0  0  0  0  0  0  0  0
   10.4406   -4.9087   19.1089 C   0  0  0  0  0  0  0  0  0  0  0  0
    6.3669   -8.4248   17.0353 C   0  0  0  0  0  0  0  0  0  0  0  0
   12.5909   -4.0361   23.2719 O   0  0  0  0  0  0  0  0  0  0  0  0
   12.2405   -5.0261   20.3806 C   0  0  0  0  0  0  0  0  0  0  0  0
    3.9015   -9.3608   17.0853 C   0  0  0  0  0  0  0  0  0  0  0  0
   12.2717   -4.3047   22.6016 C   0  0  0  0  0  0  0  0  0  0  0  0
    8.2740   -5.0707   15.6982 N   0  0  0  0  0  0  0  0  0  0  0  0
    8.0984   -6.7055   16.8096 C   0  0  0  0  0  0  0  0  0  0  0  0
   10.6043   -3.8730   17.8966 He  0  0  0  0  0  0  0  0  0  0  0  0
    8.0921   -8.0881   17.1273 He  0  0  0  0  0  0  0  0  0  0  0  0
    8.9432   -5.7454   17.6079 He  0  0  0  0  0  0  0  0  0  0  0  0
    5.4387   -8.2569   16.0891 He  0  0  0  0  0  0  0  0  0  0  0  0
  1  2  3  0
  1 11  3  0
  1 19  4  0
  2  6  4  0
  2 15  3  0
  3  4  4  0
  3 11  4  0
  3 14  4  0
  3 15  2  0
  3 20  4  0
  4  5  2  0
  4 11  3  0
  4 14  3  0
  5 19  4  0
  5 21  3  0
  6 14  1  0
  6 17  4  0
  7 16  1  0
  7 18  1  0
  8 10  4  0
  8 11  1  0
  8 14  1  0
  8 18  4  0
  9 14  4  0
 10 12  2  0
 10 13  3  0
 10 18  4  0
 10 19  4  0
 11 15  3  0
 11 20  3  0
 12 14  3  0
 12 20  4  0
 12 21  4  0
 13 15  4  0
 13 16  2  0
 13 20  3  0
 14 18  4  0
 14 21  3  0
 16 19  1  0
M  END
$$$$

 Created by Python create_sdf_string function

 25 28  0  0  0  0  0  0  0  0999 V2000
   13.0408   -5.0445   21.5781 C   0  0  0  0  0  0  0  0  0  0  0  0
   10.5630   -3.7785   18.0396 C   0  0  0  0  0  0  0  0  0  0  0  0
   10.4213   -4.1769   21.1150 C   0  0  0  0  0  0  0  0  0  0  0  0
    9.0713   -4.8607   16.5392 C   0  0  0  0  0  0  0  0  0  0  0  0
   11.2753   -2.6587   18.3253 O   0  0  0  0  0  0  0  0  0  0  0  0
   10.9529   -4.0445   22.3572 C   0  0  0  0  0  0  0  0  0  0  0  0
   11.1633   -4.8075   20.0847 C   0  0  0  0  0  0  0  0  0  0  0  0
   11.9178   -3.7590   24.7090 C   0  0  0  0  0  0  0  0  0  0  0  0
    4.2474   -8.6883   16.0399 C   0  0  0  0  0  0  0  0  0  0  0  0
    7.8245   -8.1263   17.2610 C   0  0  0  0  0  0  0  0  0  0  0  0
    9.7145   -6.0078   18.5830 C   0  0  0  0  0  0  0  0  0  0  0  0
    4.6929   -9.9960   17.9061 C   0  0  0  0  0  0  0  0  0  0  0  0
    9.8246   -3.7884   16.8516 N   0  0  0  0  0  0  0  0  0  0  0  0
    7.7105   -6.2041   15.5860 N   0  0  0  0  0  0  0  0  0  0  0  0
    5.9222   -9.4857   17.9404 C   0  0  0  0  0  0  0  0  0  0  0  0
   10.5500   -4.8873   18.9383 C   0  0  0  0  0  0  0  0  0  0  0  0
    6.4358   -8.6139   17.0323 C   0  0  0  0  0  0  0  0  0  0  0  0
   12.8444   -4.1759   23.7380 O   0  0  0  0  0  0  0  0  0  0  0  0
    9.0271   -5.9519   17.3928 N   0  0  0  0  0  0  0  0  0  0  0  0
    5.4897   -8.2636   15.9920 C   0  0  0  0  0  0  0  0  0  0  0  0
   12.4169   -5.2127   20.3608 C   0  0  0  0  0  0  0  0  0  0  0  0
    3.8448   -9.5545   16.9782 C   0  0  0  0  0  0  0  0  0  0  0  0
   12.2692   -4.4196   22.5254 C   0  0  0  0  0  0  0  0  0  0  0  0
    8.2464   -4.9920   15.5072 N   0  0  0  0  0  0  0  0  0  0  0  0
    8.1784   -6.8192   16.7869 C   0  0  0  0  0  0  0  0  0  0  0  0
  1 21  4  0
  1 23  4  0
  2  5  2  0
  2 13  4  0
  2 16  4  0
  3  6  4  0
  3  7  4  0
  4 13  4  0
  4 19  4  0
  4 24  4  0
  6 23  4  0
  7 16  1  0
  7 21  4  0
  8 18  1  0
  9 20  4  0
  9 22  4  0
 10 17  1  0
 10 25  1  0
 11 16  4  0
 11 19  4  0
 12 15  4  0
 12 22  4  0
 14 24  4  0
 14 25  4  0
 15 17  4  0
 17 20  4  0
 18 23  1  0
 19 25  4  0
M  END
$$$$

 Created by Python create_sdf_string function

 25 38  0  0  0  0  0  0  0  0999 V2000
   10.2532   -3.7230   18.3143 C   0  0  0  0  0  0  0  0  0  0  0  0
   10.5124   -4.2750   21.1925 C   0  0  0  0  0  0  0  0  0  0  0  0
    8.8405   -4.8146   16.9128 C   0  0  0  0  0  0  0  0  0  0  0  0
   11.5486   -2.6416   18.4123 O   0  0  0  0  0  0  0  0  0  0  0  0
   10.6553   -5.0205   19.9751 N   0  0  0  0  0  0  0  0  0  0  0  0
   11.5222   -3.8069   24.8203 C   0  0  0  0  0  0  0  0  0  0  0  0
    4.4488   -8.7336   16.0408 C   0  0  0  0  0  0  0  0  0  0  0  0
    7.7209   -8.0514   16.9772 C   0  0  0  0  0  0  0  0  0  0  0  0
    9.5169   -5.9981   19.0088 C   0  0  0  0  0  0  0  0  0  0  0  0
    4.3972   -9.9722   17.9720 C   0  0  0  0  0  0  0  0  0  0  0  0
    6.0866   -9.3153   17.9573 C   0  0  0  0  0  0  0  0  0  0  0  0
    6.5552   -8.4869   17.1664 C   0  0  0  0  0  0  0  0  0  0  0  0
   12.7194   -4.0348   23.5599 O   0  0  0  0  0  0  0  0  0  0  0  0
    9.1968   -6.0513   17.2289 N   0  0  0  0  0  0  0  0  0  0  0  0
    5.4977   -7.9121   16.0184 C   0  0  0  0  0  0  0  0  0  0  0  0
   12.0344   -5.2775   20.5064 C   0  0  0  0  0  0  0  0  0  0  0  0
    3.9808   -9.2673   16.7239 C   0  0  0  0  0  0  0  0  0  0  0  0
   12.4668   -4.1561   22.6017 O   0  0  0  0  0  0  0  0  0  0  0  0
    8.3540   -4.7862   15.2029 N   0  0  0  0  0  0  0  0  0  0  0  0
    7.9188   -6.7577   16.8719 C   0  0  0  0  0  0  0  0  0  0  0  0
   12.7098   -5.0968   21.6947 He  0  0  0  0  0  0  0  0  0  0  0  0
   11.0067   -3.8945   21.9640 He  0  0  0  0  0  0  0  0  0  0  0  0
    9.9477   -3.9105   16.9336 He  0  0  0  0  0  0  0  0  0  0  0  0
    7.8481   -6.2096   15.4143 He  0  0  0  0  0  0  0  0  0  0  0  0
   10.5311   -4.7732   19.0261 He  0  0  0  0  0  0  0  0  0  0  0  0
  1  3  2  0
  1  4  1  0
  1 17  3  0
  2  4  3  0
  2  5  4  0
  3 10  3  0
  3 13  3  0
  3 19  4  0
  4  6  1  0
  4 10  3  0
  4 14  4  0
  5  7  4  0
  5  9  3  0
  5 16  4  0
  6 13  1  0
  7  9  4  0
  7 15  4  0
  7 17  4  0
  8  9  2  0
  8 11  4  0
  8 12  1  0
  8 20  1  0
  9 11  3  0
  9 14  4  0
  9 20  4  0
 10 11  4  0
 10 16  4  0
 10 17  4  0
 11 12  4  0
 11 13  1  0
 11 18  2  0
 11 19  1  0
 12 15  4  0
 13 15  4  0
 13 18  1  0
 14 20  4  0
 15 20  2  0
 16 20  3  0
M  END
$$$$

 Created by Python create_sdf_string function

 25 28  0  0  0  0  0  0  0  0999 V2000
   12.8614   -5.1032   21.6225 C   0  0  0  0  0  0  0  0  0  0  0  0
   10.5667   -3.7529   18.0792 C   0  0  0  0  0  0  0  0  0  0  0  0
   10.3261   -4.0425   21.1435 C   0  0  0  0  0  0  0  0  0  0  0  0
    9.0852   -4.8307   16.5744 C   0  0  0  0  0  0  0  0  0  0  0  0
   11.3160   -2.6338   18.3942 O   0  0  0  0  0  0  0  0  0  0  0  0
   10.8865   -3.8615   22.3517 C   0  0  0  0  0  0  0  0  0  0  0  0
   11.0120   -4.7721   20.1384 C   0  0  0  0  0  0  0  0  0  0  0  0
   11.7611   -3.7421   24.8000 C   0  0  0  0  0  0  0  0  0  0  0  0
    4.1782   -8.5874   15.9681 C   0  0  0  0  0  0  0  0  0  0  0  0
    7.7794   -8.0855   17.1383 C   0  0  0  0  0  0  0  0  0  0  0  0
    9.5960   -6.0044   18.5552 C   0  0  0  0  0  0  0  0  0  0  0  0
    4.6289   -9.8509   17.8859 C   0  0  0  0  0  0  0  0  0  0  0  0
    9.8169   -3.7900   16.9165 C   0  0  0  0  0  0  0  0  0  0  0  0
    7.7943   -6.1343   15.5189 N   0  0  0  0  0  0  0  0  0  0  0  0
    5.8411   -9.3160   17.9311 C   0  0  0  0  0  0  0  0  0  0  0  0
   10.4429   -4.8505   18.9737 C   0  0  0  0  0  0  0  0  0  0  0  0
    6.3737   -8.5122   17.0144 C   0  0  0  0  0  0  0  0  0  0  0  0
   12.7377   -4.0897   23.7525 O   0  0  0  0  0  0  0  0  0  0  0  0
    8.9748   -5.9684   17.3600 N   0  0  0  0  0  0  0  0  0  0  0  0
    5.4422   -8.1639   16.0086 C   0  0  0  0  0  0  0  0  0  0  0  0
   12.2319   -5.2690   20.4180 C   0  0  0  0  0  0  0  0  0  0  0  0
    3.7888   -9.4442   16.9361 C   0  0  0  0  0  0  0  0  0  0  0  0
   12.1615   -4.3517   22.5499 C   0  0  0  0  0  0  0  0  0  0  0  0
    8.3162   -4.9106   15.5047 N   0  0  0  0  0  0  0  0  0  0  0  0
    8.1623   -6.8186   16.7054 C   0  0  0  0  0  0  0  0  0  0  0  0
  1 21  4  0
  1 23  4  0
  2  5  1  0
  2 13  4  0
  2 16  4  0
  3  6  4  0
  3  7  4  0
  4 13  4  0
  4 19  4  0
  4 24  4  0
  6 23  4  0
  7 16  1  0
  7 21  4  0
  8 18  1  0
  9 20  4  0
  9 22  4  0
 10 17  1  0
 10 25  1  0
 11 16  4  0
 11 19  4  0
 12 15  4  0
 12 22  4  0
 14 24  4  0
 14 25  4  0
 15 17  4  0
 17 20  4  0
 18 23  1  0
 19 25  4  0
M  END
$$$$

 Created by Python create_sdf_string function

 25 41  0  0  0  0  0  0  0  0999 V2000
   12.9167   -5.1142   21.6372 C   0  0  0  0  0  0  0  0  0  0  0  0
   10.9345   -3.9089   21.0584 C   0  0  0  0  0  0  0  0  0  0  0  0
    9.1233   -4.9248   16.3581 C   0  0  0  0  0  0  0  0  0  0  0  0
   11.3632   -2.6763   18.2668 O   0  0  0  0  0  0  0  0  0  0  0  0
   11.1492   -4.2684   22.0528 C   0  0  0  0  0  0  0  0  0  0  0  0
   11.2201   -4.7946   20.0023 C   0  0  0  0  0  0  0  0  0  0  0  0
   11.6068   -3.5943   24.5422 C   0  0  0  0  0  0  0  0  0  0  0  0
    3.9475   -8.5518   15.8890 C   0  0  0  0  0  0  0  0  0  0  0  0
    7.7471   -8.1145   17.0395 C   0  0  0  0  0  0  0  0  0  0  0  0
    9.5608   -5.7099   18.7955 C   0  0  0  0  0  0  0  0  0  0  0  0
    4.6309   -9.7159   17.7310 C   0  0  0  0  0  0  0  0  0  0  0  0
    9.8862   -3.7310   16.6838 C   0  0  0  0  0  0  0  0  0  0  0  0
    7.8969   -5.7730   15.4870 N   0  0  0  0  0  0  0  0  0  0  0  0
    5.9291   -9.5224   17.8987 C   0  0  0  0  0  0  0  0  0  0  0  0
   10.2362   -5.2338   19.1687 F   0  0  0  0  0  0  0  0  0  0  0  0
    6.3456   -8.4246   16.9291 C   0  0  0  0  0  0  0  0  0  0  0  0
   12.9505   -3.8191   23.5771 O   0  0  0  0  0  0  0  0  0  0  0  0
    8.9481   -5.9895   17.1598 N   0  0  0  0  0  0  0  0  0  0  0  0
   12.0884   -5.2712   20.0585 P   0  0  0  0  0  0  0  0  0  0  0  0
    3.4817   -9.2840   17.0314 C   0  0  0  0  0  0  0  0  0  0  0  0
   12.1001   -4.1250   22.5908 C   0  0  0  0  0  0  0  0  0  0  0  0
    8.3229   -4.6917   15.3009 N   0  0  0  0  0  0  0  0  0  0  0  0
    8.1824   -6.7894   16.7925 P   0  0  0  0  0  0  0  0  0  0  0  0
   10.4723   -3.6613   18.1355 He  0  0  0  0  0  0  0  0  0  0  0  0
    5.2343   -8.0623   16.1672 He  0  0  0  0  0  0  0  0  0  0  0  0
  1  5  1  0
  1  6  2  0
  1 14  2  0
  1 16  1  0
  1 19  4  0
  1 21  4  0
  2  5  4  0
  2  6  4  0
  3 17  1  0
  3 18  4  0
  3 20  3  0
  3 22  4  0
  4 20  3  0
  4 23  2  0
  5  9  4  0
  5 19  1  0
  5 21  4  0
  6 15  1  0
  6 19  4  0
  7  8  1  0
  7 17  1  0
  8 13  3  0
  8 20  4  0
  8 22  1  0
  9 12  1  0
  9 16  1  0
 10 18  4  0
 11 14  4  0
 11 20  4  0
 12 16  3  0
 13 15  1  0
 13 17  3  0
 13 22  4  0
 13 23  4  0
 14 16  4  0
 14 21  2  0
 15 16  4  0
 15 20  2  0
 15 22  4  0
 17 21  1  0
 18 23  4  0
M  END
$$$$

 Created by Python create_sdf_string function

 25 28  0  0  0  0  0  0  0  0999 V2000
   12.9504   -5.1182   21.5172 C   0  0  0  0  0  0  0  0  0  0  0  0
   10.5699   -3.7332   17.9590 C   0  0  0  0  0  0  0  0  0  0  0  0
   10.4333   -4.0288   21.0589 C   0  0  0  0  0  0  0  0  0  0  0  0
    9.0339   -4.8134   16.4568 C   0  0  0  0  0  0  0  0  0  0  0  0
   11.2833   -2.6129   18.2839 O   0  0  0  0  0  0  0  0  0  0  0  0
   11.0239   -3.7256   22.2261 C   0  0  0  0  0  0  0  0  0  0  0  0
   11.1066   -4.7401   20.0686 C   0  0  0  0  0  0  0  0  0  0  0  0
   11.8146   -3.6110   24.6201 C   0  0  0  0  0  0  0  0  0  0  0  0
    4.0157   -8.4408   16.0566 C   0  0  0  0  0  0  0  0  0  0  0  0
    7.6966   -8.0322   17.0401 C   0  0  0  0  0  0  0  0  0  0  0  0
    9.6002   -5.9631   18.4760 C   0  0  0  0  0  0  0  0  0  0  0  0
    4.5463   -9.8424   17.8572 C   0  0  0  0  0  0  0  0  0  0  0  0
    9.8568   -3.7760   16.7658 C   0  0  0  0  0  0  0  0  0  0  0  0
    7.6281   -6.1133   15.4903 N   0  0  0  0  0  0  0  0  0  0  0  0
    5.7898   -9.3736   17.8466 C   0  0  0  0  0  0  0  0  0  0  0  0
   10.4762   -4.8366   18.8635 C   0  0  0  0  0  0  0  0  0  0  0  0
    6.2412   -8.4711   16.9411 C   0  0  0  0  0  0  0  0  0  0  0  0
   12.8135   -4.0963   23.6594 O   0  0  0  0  0  0  0  0  0  0  0  0
    8.9056   -5.9081   17.3071 N   0  0  0  0  0  0  0  0  0  0  0  0
    5.2614   -8.0304   16.0184 C   0  0  0  0  0  0  0  0  0  0  0  0
   12.3374   -5.2301   20.2504 C   0  0  0  0  0  0  0  0  0  0  0  0
    3.6284   -9.3590   16.9853 C   0  0  0  0  0  0  0  0  0  0  0  0
   12.2833   -4.3084   22.4392 C   0  0  0  0  0  0  0  0  0  0  0  0
    8.2362   -4.9443   15.4032 N   0  0  0  0  0  0  0  0  0  0  0  0
    8.0383   -6.7413   16.6461 C   0  0  0  0  0  0  0  0  0  0  0  0
  1 21  4  0
  1 23  4  0
  2  5  1  0
  2 13  4  0
  2 16  4  0
  3  6  4  0
  3  7  4  0
  4 13  4  0
  4 19  4  0
  4 24  4  0
  6 23  4  0
  7 16  1  0
  7 21  4  0
  8 18  1  0
  9 20  4  0
  9 22  4  0
 10 17  1  0
 10 25  1  0
 11 16  4  0
 11 19  4  0
 12 15  4  0
 12 22  4  0
 14 24  4  0
 14 25  4  0
 15 17  4  0
 17 20  4  0
 18 23  1  0
 19 25  4  0
M  END
$$$$

 Created by Python create_sdf_string function

 25 33  0  0  0  0  0  0  0  0999 V2000
   12.9563   -4.9196   21.4260 C   0  0  0  0  0  0  0  0  0  0  0  0
   10.8243   -3.7173   18.2460 C   0  0  0  0  0  0  0  0  0  0  0  0
    8.3574   -4.6083   16.5039 O   0  0  0  0  0  0  0  0  0  0  0  0
   11.3436   -2.6473   18.3044 O   0  0  0  0  0  0  0  0  0  0  0  0
   10.8498   -3.8489   22.2646 I   0  0  0  0  0  0  0  0  0  0  0  0
   11.2262   -4.8000   20.1066 C   0  0  0  0  0  0  0  0  0  0  0  0
   11.9395   -3.6033   24.4380 C   0  0  0  0  0  0  0  0  0  0  0  0
    3.9106   -8.4295   15.8964 C   0  0  0  0  0  0  0  0  0  0  0  0
    7.9152   -8.0794   17.2816 C   0  0  0  0  0  0  0  0  0  0  0  0
    9.7351   -6.0509   18.2920 C   0  0  0  0  0  0  0  0  0  0  0  0
    9.7695   -3.5671   16.7553 C   0  0  0  0  0  0  0  0  0  0  0  0
    7.7829   -6.0923   15.4692 N   0  0  0  0  0  0  0  0  0  0  0  0
    5.3962   -9.5116   17.8195 C   0  0  0  0  0  0  0  0  0  0  0  0
   10.3103   -4.9067   18.9028 C   0  0  0  0  0  0  0  0  0  0  0  0
    6.1689   -8.6144   16.9438 C   0  0  0  0  0  0  0  0  0  0  0  0
   12.7199   -4.3004   23.6047 O   0  0  0  0  0  0  0  0  0  0  0  0
    8.9133   -6.2426   17.1965 I   0  0  0  0  0  0  0  0  0  0  0  0
    4.9433   -8.3171   15.9288 C   0  0  0  0  0  0  0  0  0  0  0  0
   12.4613   -4.9552   20.1553 C   0  0  0  0  0  0  0  0  0  0  0  0
    3.5974   -9.1781   16.6527 C   0  0  0  0  0  0  0  0  0  0  0  0
   12.5215   -4.3109   22.5710 C   0  0  0  0  0  0  0  0  0  0  0  0
    8.1158   -5.0254   15.4548 N   0  0  0  0  0  0  0  0  0  0  0  0
    8.1261   -6.6113   16.6382 C   0  0  0  0  0  0  0  0  0  0  0  0
   10.3557   -4.0533   20.7420 He  0  0  0  0  0  0  0  0  0  0  0  0
    4.7998   -9.6961   17.7378 He  0  0  0  0  0  0  0  0  0  0  0  0
  1 19  4  0
  1 21  4  0
  2  4  1  0
  2  6  1  0
  2 11  4  0
  2 14  4  0
  2 21  3  0
  3 11  4  0
  3 17  4  0
  3 22  4  0
  4 14  1  0
  5  6  1  0
  5  7  3  0
  5 21  4  0
  6  9  1  0
  6 14  1  0
  6 17  4  0
  6 19  4  0
  6 20  2  0
  7 16  4  0
  8 12  4  0
  8 18  4  0
  9 13  3  0
  9 15  1  0
  9 23  1  0
 10 14  4  0
 10 17  4  0
 12 22  4  0
 13 15  4  0
 13 17  4  0
 15 18  4  0
 17 23  4  0
 19 21  1  0
M  END
$$$$

 Created by Python create_sdf_string function

 25 28  0  0  0  0  0  0  0  0999 V2000
   12.9867   -4.9805   21.4331 C   0  0  0  0  0  0  0  0  0  0  0  0
   10.5033   -3.6960   17.8953 C   0  0  0  0  0  0  0  0  0  0  0  0
   10.3972   -4.0566   20.9780 C   0  0  0  0  0  0  0  0  0  0  0  0
    8.9062   -4.8269   16.4492 C   0  0  0  0  0  0  0  0  0  0  0  0
   11.2964   -2.6398   18.1495 O   0  0  0  0  0  0  0  0  0  0  0  0
   10.9375   -3.9019   22.2333 C   0  0  0  0  0  0  0  0  0  0  0  0
   11.1090   -4.6826   19.9616 C   0  0  0  0  0  0  0  0  0  0  0  0
   11.9591   -3.6173   24.6322 C   0  0  0  0  0  0  0  0  0  0  0  0
    4.0009   -8.4949   15.8990 C   0  0  0  0  0  0  0  0  0  0  0  0
    7.6506   -8.1285   17.0786 C   0  0  0  0  0  0  0  0  0  0  0  0
    9.6688   -5.9988   18.3739 C   0  0  0  0  0  0  0  0  0  0  0  0
    4.3853   -9.8144   17.7980 C   0  0  0  0  0  0  0  0  0  0  0  0
    9.6557   -3.7253   16.7735 C   0  0  0  0  0  0  0  0  0  0  0  0
    7.5224   -6.1779   15.4962 N   0  0  0  0  0  0  0  0  0  0  0  0
    5.6408   -9.3909   17.8305 C   0  0  0  0  0  0  0  0  0  0  0  0
   10.4954   -4.8218   18.7774 C   0  0  0  0  0  0  0  0  0  0  0  0
    6.1704   -8.5172   16.9229 C   0  0  0  0  0  0  0  0  0  0  0  0
   12.7743   -4.2294   23.6359 O   0  0  0  0  0  0  0  0  0  0  0  0
    8.9064   -5.9599   17.2376 N   0  0  0  0  0  0  0  0  0  0  0  0
    5.2392   -8.0942   15.9369 C   0  0  0  0  0  0  0  0  0  0  0  0
   12.3687   -5.1083   20.1919 C   0  0  0  0  0  0  0  0  0  0  0  0
    3.5582   -9.3362   16.8756 C   0  0  0  0  0  0  0  0  0  0  0  0
   12.2233   -4.3548   22.4124 C   0  0  0  0  0  0  0  0  0  0  0  0
    8.0558   -4.9527   15.4526 N   0  0  0  0  0  0  0  0  0  0  0  0
    8.0082   -6.8235   16.6483 C   0  0  0  0  0  0  0  0  0  0  0  0
  1 21  4  0
  1 23  4  0
  2  5  1  0
  2 13  4  0
  2 16  4  0
  3  6  4  0
  3  7  4  0
  4 13  4  0
  4 19  4  0
  4 24  4  0
  6 23  4  0
  7 16  1  0
  7 21  4  0
  8 18  1  0
  9 20  4  0
  9 22  4  0
 10 17  1  0
 10 25  1  0
 11 16  4  0
 11 19  4  0
 12 15  4  0
 12 22  4  0
 14 24  4  0
 14 25  4  0
 15 17  4  0
 17 20  4  0
 18 23  1  0
 19 25  4  0
M  END
$$$$

 Created by Python create_sdf_string function

 25 33  0  0  0  0  0  0  0  0999 V2000
   12.9585   -5.0684   21.1073 C   0  0  0  0  0  0  0  0  0  0  0  0
   10.3725   -3.8991   17.7788 C   0  0  0  0  0  0  0  0  0  0  0  0
   10.5354   -3.8643   21.0596 C   0  0  0  0  0  0  0  0  0  0  0  0
    8.8267   -4.8252   16.3452 C   0  0  0  0  0  0  0  0  0  0  0  0
   10.8846   -4.1378   22.3773 C   0  0  0  0  0  0  0  0  0  0  0  0
   10.7821   -4.6451   20.3527 C   0  0  0  0  0  0  0  0  0  0  0  0
   12.2150   -3.5472   24.8391 C   0  0  0  0  0  0  0  0  0  0  0  0
    4.0417   -8.7840   15.7438 C   0  0  0  0  0  0  0  0  0  0  0  0
    7.6314   -8.1499   16.9853 C   0  0  0  0  0  0  0  0  0  0  0  0
    9.5346   -5.9800   18.5535 C   0  0  0  0  0  0  0  0  0  0  0  0
    4.3897   -9.5459   17.8872 P   0  0  0  0  0  0  0  0  0  0  0  0
    9.6241   -3.4957   16.7032 C   0  0  0  0  0  0  0  0  0  0  0  0
    7.5228   -6.3249   15.6231 O   0  0  0  0  0  0  0  0  0  0  0  0
   10.2783   -5.0248   18.8183 S   0  0  0  0  0  0  0  0  0  0  0  0
    5.8819   -8.4275   16.9863 C   0  0  0  0  0  0  0  0  0  0  0  0
   12.7255   -4.2010   23.7212 O   0  0  0  0  0  0  0  0  0  0  0  0
    9.1849   -6.0379   17.4123 N   0  0  0  0  0  0  0  0  0  0  0  0
    4.9275   -8.1875   15.6799 Br  0  0  0  0  0  0  0  0  0  0  0  0
   12.4019   -5.2248   20.1624 C   0  0  0  0  0  0  0  0  0  0  0  0
    7.9341   -4.8821   15.8035 N   0  0  0  0  0  0  0  0  0  0  0  0
    8.0686   -6.7302   16.8338 C   0  0  0  0  0  0  0  0  0  0  0  0
   11.5534   -2.4858   17.9014 He  0  0  0  0  0  0  0  0  0  0  0  0
    5.7485   -8.9159   17.8019 He  0  0  0  0  0  0  0  0  0  0  0  0
    3.8093   -9.5603   16.7476 He  0  0  0  0  0  0  0  0  0  0  0  0
   12.2303   -4.3917   22.7587 He  0  0  0  0  0  0  0  0  0  0  0  0
  1 19  4  0
  2 12  4  0
  2 14  2  0
  2 15  4  0
  3  5  4  0
  3  6  4  0
  4  5  2  0
  4  6  3  0
  4  7  4  0
  4 12  4  0
  4 17  4  0
  4 20  4  0
  6 14  1  0
  6 20  4  0
  7 14  4  0
  7 16  1  0
  8 18  4  0
  9 10  2  0
  9 13  1  0
  9 15  1  0
  9 21  1  0
 10 14  4  0
 10 17  4  0
 10 18  1  0
 11 12  2  0
 12 16  1  0
 13 14  4  0
 13 20  4  0
 13 21  3  0
 14 16  3  0
 15 18  3  0
 17 21  4  0
 20 21  2  0
M  END
$$$$

 Created by Python create_sdf_string function

 25 28  0  0  0  0  0  0  0  0999 V2000
   12.9126   -5.0802   21.5091 C   0  0  0  0  0  0  0  0  0  0  0  0
   10.4906   -3.7708   17.8812 C   0  0  0  0  0  0  0  0  0  0  0  0
   10.3544   -4.0734   21.0589 C   0  0  0  0  0  0  0  0  0  0  0  0
    8.8576   -4.8841   16.4683 C   0  0  0  0  0  0  0  0  0  0  0  0
   11.3538   -2.6530   18.0690 C   0  0  0  0  0  0  0  0  0  0  0  0
   10.9394   -3.9041   22.3215 C   0  0  0  0  0  0  0  0  0  0  0  0
   11.0351   -4.6899   20.0435 C   0  0  0  0  0  0  0  0  0  0  0  0
   12.2072   -3.6690   24.7343 C   0  0  0  0  0  0  0  0  0  0  0  0
    4.0049   -8.7908   15.7841 C   0  0  0  0  0  0  0  0  0  0  0  0
    7.6098   -8.1361   16.9964 C   0  0  0  0  0  0  0  0  0  0  0  0
    9.6013   -5.9675   18.4530 C   0  0  0  0  0  0  0  0  0  0  0  0
    4.3802   -9.6690   17.9210 C   0  0  0  0  0  0  0  0  0  0  0  0
    9.6833   -3.8203   16.6883 C   0  0  0  0  0  0  0  0  0  0  0  0
    7.4237   -6.1631   15.5727 N   0  0  0  0  0  0  0  0  0  0  0  0
    5.5935   -9.1012   17.9816 C   0  0  0  0  0  0  0  0  0  0  0  0
   10.4083   -4.8205   18.8141 C   0  0  0  0  0  0  0  0  0  0  0  0
    6.1126   -8.4918   16.9078 C   0  0  0  0  0  0  0  0  0  0  0  0
   12.8373   -4.3044   23.6907 O   0  0  0  0  0  0  0  0  0  0  0  0
    8.8334   -5.9809   17.3218 N   0  0  0  0  0  0  0  0  0  0  0  0
    5.2326   -8.2958   15.7537 C   0  0  0  0  0  0  0  0  0  0  0  0
   12.2939   -5.1491   20.2543 C   0  0  0  0  0  0  0  0  0  0  0  0
    3.5725   -9.4351   16.8780 C   0  0  0  0  0  0  0  0  0  0  0  0
   12.2199   -4.4261   22.4613 C   0  0  0  0  0  0  0  0  0  0  0  0
    7.9960   -4.9918   15.4819 N   0  0  0  0  0  0  0  0  0  0  0  0
    7.9358   -6.8324   16.6824 C   0  0  0  0  0  0  0  0  0  0  0  0
  1 21  4  0
  1 23  4  0
  2  5  1  0
  2 13  4  0
  2 16  4  0
  3  6  4  0
  3  7  4  0
  4 13  4  0
  4 19  4  0
  4 24  4  0
  6 23  4  0
  7 16  1  0
  7 21  4  0
  8 18  1  0
  9 20  4  0
  9 22  4  0
 10 17  1  0
 10 25  1  0
 11 16  4  0
 11 19  4  0
 12 15  4  0
 12 22  4  0
 14 24  4  0
 14 25  4  0
 15 17  4  0
 17 20  4  0
 18 23  1  0
 19 25  4  0
M  END
$$$$

 Created by Python create_sdf_string function

 25 36  0  0  0  0  0  0  0  0999 V2000
   12.8923   -4.9389   21.6013 C   0  0  0  0  0  0  0  0  0  0  0  0
   10.5493   -3.9257   17.9090 C   0  0  0  0  0  0  0  0  0  0  0  0
   10.2803   -4.0723   20.9700 C   0  0  0  0  0  0  0  0  0  0  0  0
   11.2097   -3.6415   22.4097 C   0  0  0  0  0  0  0  0  0  0  0  0
   11.0960   -4.6601   20.0687 C   0  0  0  0  0  0  0  0  0  0  0  0
   12.1610   -3.5319   24.5645 C   0  0  0  0  0  0  0  0  0  0  0  0
    3.8148   -8.7053   15.9732 C   0  0  0  0  0  0  0  0  0  0  0  0
    7.7608   -8.2399   16.8656 C   0  0  0  0  0  0  0  0  0  0  0  0
    9.4533   -6.0934   18.4277 C   0  0  0  0  0  0  0  0  0  0  0  0
    4.4959   -9.7557   17.7679 C   0  0  0  0  0  0  0  0  0  0  0  0
    9.5016   -4.1404   16.5307 C   0  0  0  0  0  0  0  0  0  0  0  0
    7.2528   -6.2744   15.4427 N   0  0  0  0  0  0  0  0  0  0  0  0
    5.6344   -9.1491   17.9594 C   0  0  0  0  0  0  0  0  0  0  0  0
   10.3589   -4.7642   18.8612 C   0  0  0  0  0  0  0  0  0  0  0  0
    6.0849   -8.3309   16.9971 C   0  0  0  0  0  0  0  0  0  0  0  0
   12.3198   -4.3192   23.7127 O   0  0  0  0  0  0  0  0  0  0  0  0
    8.7833   -5.6960   17.4418 N   0  0  0  0  0  0  0  0  0  0  0  0
    5.1404   -8.4460   15.8849 C   0  0  0  0  0  0  0  0  0  0  0  0
   12.3974   -5.0980   20.2797 C   0  0  0  0  0  0  0  0  0  0  0  0
    3.4308   -9.0984   16.8049 Se  0  0  0  0  0  0  0  0  0  0  0  0
   12.3764   -4.3730   22.4422 C   0  0  0  0  0  0  0  0  0  0  0  0
    7.8655   -6.8628   16.6955 C   0  0  0  0  0  0  0  0  0  0  0  0
    8.6604   -5.1765   16.3810 He  0  0  0  0  0  0  0  0  0  0  0  0
   11.5321   -2.8868   17.8791 He  0  0  0  0  0  0  0  0  0  0  0  0
    7.9598   -4.8483   15.5420 He  0  0  0  0  0  0  0  0  0  0  0  0
  1 17  4  0
  1 19  4  0
  1 21  4  0
  2 11  4  0
  2 14  3  0
  3  4  4  0
  3  5  4  0
  3 18  1  0
  3 21  1  0
  4  7  2  0
  4 21  3  0
  5 14  1  0
  5 19  4  0
  6  8  3  0
  6 16  1  0
  7 18  4  0
  7 20  4  0
  8 15  3  0
  8 22  1  0
  9 14  4  0
  9 16  2  0
  9 17  4  0
  9 21  1  0
 10 13  4  0
 10 20  4  0
 10 21  2  0
 11 12  3  0
 12 22  4  0
 13 14  2  0
 13 15  4  0
 13 22  4  0
 15 16  1  0
 15 18  4  0
 16 21  1  0
 17 21  3  0
 17 22  4  0
M  END
$$$$

 Created by Python create_sdf_string function

 25 28  0  0  0  0  0  0  0  0999 V2000
   12.8922   -5.0212   21.5341 C   0  0  0  0  0  0  0  0  0  0  0  0
   10.5253   -3.9028   17.7676 C   0  0  0  0  0  0  0  0  0  0  0  0
   10.3794   -3.9606   20.9607 C   0  0  0  0  0  0  0  0  0  0  0  0
    8.8168   -4.9217   16.4049 C   0  0  0  0  0  0  0  0  0  0  0  0
   11.4803   -2.8399   17.8833 C   0  0  0  0  0  0  0  0  0  0  0  0
   10.9174   -3.8011   22.2422 C   0  0  0  0  0  0  0  0  0  0  0  0
   11.0267   -4.6886   19.9911 C   0  0  0  0  0  0  0  0  0  0  0  0
   12.1278   -3.5135   24.6478 C   0  0  0  0  0  0  0  0  0  0  0  0
    3.8928   -8.6892   15.9005 C   0  0  0  0  0  0  0  0  0  0  0  0
    7.5697   -8.1483   17.0210 C   0  0  0  0  0  0  0  0  0  0  0  0
    9.4854   -5.9702   18.4280 C   0  0  0  0  0  0  0  0  0  0  0  0
    4.3403   -9.6927   17.9505 C   0  0  0  0  0  0  0  0  0  0  0  0
    9.6835   -3.9195   16.6393 C   0  0  0  0  0  0  0  0  0  0  0  0
    7.2870   -6.2100   15.5382 N   0  0  0  0  0  0  0  0  0  0  0  0
    5.5926   -9.2793   17.9269 C   0  0  0  0  0  0  0  0  0  0  0  0
   10.3825   -4.8837   18.7782 C   0  0  0  0  0  0  0  0  0  0  0  0
    6.0774   -8.5669   16.8862 C   0  0  0  0  0  0  0  0  0  0  0  0
   12.6943   -4.2957   23.7203 O   0  0  0  0  0  0  0  0  0  0  0  0
    8.7722   -6.0007   17.2592 N   0  0  0  0  0  0  0  0  0  0  0  0
    5.1424   -8.2655   15.8263 C   0  0  0  0  0  0  0  0  0  0  0  0
   12.2685   -5.1669   20.2646 C   0  0  0  0  0  0  0  0  0  0  0  0
    3.4749   -9.4040   16.9915 C   0  0  0  0  0  0  0  0  0  0  0  0
   12.1521   -4.3594   22.4842 C   0  0  0  0  0  0  0  0  0  0  0  0
    7.9215   -5.0278   15.4306 N   0  0  0  0  0  0  0  0  0  0  0  0
    7.8545   -6.8364   16.6452 C   0  0  0  0  0  0  0  0  0  0  0  0
  1 21  4  0
  1 23  4  0
  2  5  1  0
  2 13  4  0
  2 16  4  0
  3  6  4  0
  3  7  4  0
  4 13  4  0
  4 19  4  0
  4 24  4  0
  6 23  4  0
  7 16  1  0
  7 21  4  0
  8 18  1  0
  9 20  4  0
  9 22  4  0
 10 17  1  0
 10 25  1  0
 11 16  4  0
 11 19  4  0
 12 15  4  0
 12 22  4  0
 14 24  4  0
 14 25  4  0
 15 17  4  0
 17 20  4  0
 18 23  1  0
 19 25  4  0
M  END
$$$$

 Created by Python create_sdf_string function

 25 39  0  0  0  0  0  0  0  0999 V2000
   13.0576   -5.1392   21.5739 N   0  0  0  0  0  0  0  0  0  0  0  0
   10.3210   -4.0070   17.7552 C   0  0  0  0  0  0  0  0  0  0  0  0
   10.2266   -4.1168   21.0153 C   0  0  0  0  0  0  0  0  0  0  0  0
    8.5848   -4.6402   16.3390 C   0  0  0  0  0  0  0  0  0  0  0  0
   11.6473   -2.8349   17.6783 C   0  0  0  0  0  0  0  0  0  0  0  0
   11.0162   -3.9395   22.1909 C   0  0  0  0  0  0  0  0  0  0  0  0
   10.8683   -4.8590   19.5464 C   0  0  0  0  0  0  0  0  0  0  0  0
   12.0912   -3.5868   24.7891 C   0  0  0  0  0  0  0  0  0  0  0  0
    3.5977   -8.4723   15.8665 O   0  0  0  0  0  0  0  0  0  0  0  0
    7.6951   -8.2024   17.1309 C   0  0  0  0  0  0  0  0  0  0  0  0
    9.3800   -5.8340   18.2131 C   0  0  0  0  0  0  0  0  0  0  0  0
    4.5219   -9.7169   17.6917 C   0  0  0  0  0  0  0  0  0  0  0  0
    9.6557   -3.8041   16.5861 C   0  0  0  0  0  0  0  0  0  0  0  0
    7.2013   -6.3971   15.5799 N   0  0  0  0  0  0  0  0  0  0  0  0
    5.5507   -9.3815   17.9526 C   0  0  0  0  0  0  0  0  0  0  0  0
   10.2487   -4.8589   19.1206 C   0  0  0  0  0  0  0  0  0  0  0  0
    6.2128   -8.5196   17.1267 C   0  0  0  0  0  0  0  0  0  0  0  0
   12.6361   -4.4146   23.5456 O   0  0  0  0  0  0  0  0  0  0  0  0
    8.9520   -5.8780   17.3050 N   0  0  0  0  0  0  0  0  0  0  0  0
   12.3097   -4.9654   20.2546 C   0  0  0  0  0  0  0  0  0  0  0  0
    3.6704   -9.5046   16.9957 C   0  0  0  0  0  0  0  0  0  0  0  0
   12.0483   -4.5228   22.5363 C   0  0  0  0  0  0  0  0  0  0  0  0
    7.9680   -4.9656   15.6537 N   0  0  0  0  0  0  0  0  0  0  0  0
    7.7153   -6.8199   16.7091 C   0  0  0  0  0  0  0  0  0  0  0  0
    5.1528   -8.0150   15.6905 He  0  0  0  0  0  0  0  0  0  0  0  0
  1  4  3  0
  1 12  2  0
  1 20  4  0
  1 22  4  0
  2  5  1  0
  2  7  4  0
  2 13  3  0
  2 16  4  0
  3  6  4  0
  3  7  4  0
  3 14  1  0
  3 24  4  0
  4 13  4  0
  4 19  4  0
  6 22  4  0
  7 16  1  0
  7 20  4  0
  8 12  4  0
  8 16  1  0
  8 18  2  0
  8 20  1  0
  9 19  3  0
  9 21  4  0
 10 16  1  0
 10 17  1  0
 10 24  1  0
 11 16  4  0
 11 19  4  0
 11 24  4  0
 12 15  4  0
 12 21  2  0
 13 17  1  0
 13 24  4  0
 14 23  4  0
 14 24  4  0
 18 22  1  0
 18 23  1  0
 18 24  3  0
 19 24  4  0
M  END
$$$$

 Created by Python create_sdf_string function

 25 28  0  0  0  0  0  0  0  0999 V2000
   12.8847   -5.0745   21.4120 C   0  0  0  0  0  0  0  0  0  0  0  0
   10.5004   -3.8410   17.7015 C   0  0  0  0  0  0  0  0  0  0  0  0
   10.3127   -4.0873   20.9719 C   0  0  0  0  0  0  0  0  0  0  0  0
    8.7594   -4.8723   16.3880 C   0  0  0  0  0  0  0  0  0  0  0  0
   11.5362   -2.8449   17.8103 C   0  0  0  0  0  0  0  0  0  0  0  0
   10.8528   -3.9744   22.2670 C   0  0  0  0  0  0  0  0  0  0  0  0
   10.9870   -4.7031   19.9128 C   0  0  0  0  0  0  0  0  0  0  0  0
   12.1102   -3.6924   24.6576 C   0  0  0  0  0  0  0  0  0  0  0  0
    3.8663   -8.5902   15.9555 C   0  0  0  0  0  0  0  0  0  0  0  0
    7.5425   -8.1178   17.1042 C   0  0  0  0  0  0  0  0  0  0  0  0
    9.4845   -5.9173   18.4014 C   0  0  0  0  0  0  0  0  0  0  0  0
    4.3709   -9.8525   17.8619 C   0  0  0  0  0  0  0  0  0  0  0  0
    9.6080   -3.8396   16.5846 C   0  0  0  0  0  0  0  0  0  0  0  0
    7.2618   -6.2347   15.5661 N   0  0  0  0  0  0  0  0  0  0  0  0
    5.6115   -9.3976   17.8995 C   0  0  0  0  0  0  0  0  0  0  0  0
   10.3706   -4.8460   18.7105 C   0  0  0  0  0  0  0  0  0  0  0  0
    6.0761   -8.5326   16.9671 C   0  0  0  0  0  0  0  0  0  0  0  0
   12.7090   -4.4104   23.6306 O   0  0  0  0  0  0  0  0  0  0  0  0
    8.7268   -5.9335   17.2635 N   0  0  0  0  0  0  0  0  0  0  0  0
    5.1076   -8.1306   15.9705 C   0  0  0  0  0  0  0  0  0  0  0  0
   12.2415   -5.1744   20.1827 C   0  0  0  0  0  0  0  0  0  0  0  0
    3.4991   -9.4293   16.9281 C   0  0  0  0  0  0  0  0  0  0  0  0
   12.1430   -4.4744   22.4129 C   0  0  0  0  0  0  0  0  0  0  0  0
    7.8755   -5.0027   15.4312 N   0  0  0  0  0  0  0  0  0  0  0  0
    7.8265   -6.8075   16.6838 C   0  0  0  0  0  0  0  0  0  0  0  0
  1 21  4  0
  1 23  4  0
  2  5  1  0
  2 13  4  0
  2 16  4  0
  3  6  4  0
  3  7  4  0
  4 13  4  0
  4 19  4  0
  4 24  4  0
  6 23  4  0
  7 16  1  0
  7 21  4  0
  8 18  1  0
  9 20  4  0
  9 22  4  0
 10 17  1  0
 10 25  1  0
 11 16  4  0
 11 19  4  0
 12 15  4  0
 12 22  4  0
 14 24  4  0
 14 25  4  0
 15 17  4  0
 17 20  4  0
 18 23  1  0
 19 25  4  0
M  END
$$$$

 Created by Python create_sdf_string function

 25 38  0  0  0  0  0  0  0  0999 V2000
   13.0355   -5.1332   21.3008 C   0  0  0  0  0  0  0  0  0  0  0  0
   10.5219   -3.8545   18.0007 C   0  0  0  0  0  0  0  0  0  0  0  0
   10.3200   -4.2151   20.9890 C   0  0  0  0  0  0  0  0  0  0  0  0
    8.5324   -4.7197   16.6223 C   0  0  0  0  0  0  0  0  0  0  0  0
   11.8075   -2.8570   17.6762 C   0  0  0  0  0  0  0  0  0  0  0  0
   10.6946   -3.9921   22.3758 C   0  0  0  0  0  0  0  0  0  0  0  0
   10.8460   -4.6164   20.1316 C   0  0  0  0  0  0  0  0  0  0  0  0
   11.9155   -3.8023   25.0218 C   0  0  0  0  0  0  0  0  0  0  0  0
    3.8408   -8.6040   15.8264 C   0  0  0  0  0  0  0  0  0  0  0  0
    7.2318   -7.9244   16.9108 C   0  0  0  0  0  0  0  0  0  0  0  0
    9.5127   -5.8725   18.6007 C   0  0  0  0  0  0  0  0  0  0  0  0
    4.3719   -9.8909   17.9790 C   0  0  0  0  0  0  0  0  0  0  0  0
    9.6925   -3.7571   16.6426 C   0  0  0  0  0  0  0  0  0  0  0  0
    5.5338   -9.1997   17.9037 C   0  0  0  0  0  0  0  0  0  0  0  0
   10.4512   -4.9685   18.7619 C   0  0  0  0  0  0  0  0  0  0  0  0
    5.9395   -8.7496   16.9262 C   0  0  0  0  0  0  0  0  0  0  0  0
   12.7729   -4.4885   23.5363 O   0  0  0  0  0  0  0  0  0  0  0  0
    8.8129   -5.8324   17.2258 N   0  0  0  0  0  0  0  0  0  0  0  0
    5.0088   -8.1892   15.9728 Cl  0  0  0  0  0  0  0  0  0  0  0  0
   12.2891   -5.1964   20.0303 C   0  0  0  0  0  0  0  0  0  0  0  0
    3.3404   -9.2943   16.7533 C   0  0  0  0  0  0  0  0  0  0  0  0
   12.1769   -4.4850   22.4685 C   0  0  0  0  0  0  0  0  0  0  0  0
    8.0061   -4.9126   15.4435 N   0  0  0  0  0  0  0  0  0  0  0  0
    7.9636   -6.8070   16.5234 C   0  0  0  0  0  0  0  0  0  0  0  0
    7.4438   -6.0820   15.8444 He  0  0  0  0  0  0  0  0  0  0  0  0
  1 20  4  0
  1 22  1  0
  2  5  4  0
  2 13  4  0
  2 14  4  0
  2 15  4  0
  3  6  4  0
  3  7  4  0
  3 13  3  0
  4 18  4  0
  4 23  4  0
  5 17  1  0
  5 21  1  0
  6  7  1  0
  6  8  1  0
  6 16  3  0
  6 22  4  0
  7  8  4  0
  7 15  1  0
  7 20  1  0
  8 17  1  0
  9 14  3  0
  9 19  4  0
  9 21  4  0
 10 12  3  0
 10 16  1  0
 10 24  2  0
 11 15  3  0
 11 18  4  0
 12 14  4  0
 12 16  3  0
 12 21  4  0
 13 17  3  0
 14 15  2  0
 14 16  4  0
 16 19  4  0
 17 22  1  0
 18 24  4  0
M  END
$$$$

 Created by Python create_sdf_string function

 25 28  0  0  0  0  0  0  0  0999 V2000
   12.9431   -5.0854   21.4299 C   0  0  0  0  0  0  0  0  0  0  0  0
   10.5583   -3.8424   17.7745 C   0  0  0  0  0  0  0  0  0  0  0  0
   10.3144   -4.1854   21.0214 C   0  0  0  0  0  0  0  0  0  0  0  0
    8.8016   -4.8347   16.4488 C   0  0  0  0  0  0  0  0  0  0  0  0
   11.6386   -2.9044   17.7899 C   0  0  0  0  0  0  0  0  0  0  0  0
   10.8839   -4.0712   22.3028 C   0  0  0  0  0  0  0  0  0  0  0  0
   10.9926   -4.7393   19.9736 C   0  0  0  0  0  0  0  0  0  0  0  0
   11.9848   -3.9038   24.7838 C   0  0  0  0  0  0  0  0  0  0  0  0
    3.8157   -8.6544   15.8984 C   0  0  0  0  0  0  0  0  0  0  0  0
    7.3764   -8.0318   17.0519 C   0  0  0  0  0  0  0  0  0  0  0  0
    9.4415   -5.9213   18.4231 C   0  0  0  0  0  0  0  0  0  0  0  0
    4.2832   -9.8089   17.8940 C   0  0  0  0  0  0  0  0  0  0  0  0
    9.6760   -3.7907   16.6712 C   0  0  0  0  0  0  0  0  0  0  0  0
    7.3518   -6.1607   15.5698 N   0  0  0  0  0  0  0  0  0  0  0  0
    5.5280   -9.3113   17.8854 C   0  0  0  0  0  0  0  0  0  0  0  0
   10.3586   -4.8502   18.7555 C   0  0  0  0  0  0  0  0  0  0  0  0
    5.9665   -8.5046   16.9210 C   0  0  0  0  0  0  0  0  0  0  0  0
   12.7555   -4.4357   23.6872 O   0  0  0  0  0  0  0  0  0  0  0  0
    8.7167   -5.9193   17.2848 N   0  0  0  0  0  0  0  0  0  0  0  0
    5.0761   -8.2048   15.8987 C   0  0  0  0  0  0  0  0  0  0  0  0
   12.2769   -5.1601   20.1656 C   0  0  0  0  0  0  0  0  0  0  0  0
    3.3967   -9.4589   16.9350 C   0  0  0  0  0  0  0  0  0  0  0  0
   12.1889   -4.5306   22.4436 C   0  0  0  0  0  0  0  0  0  0  0  0
    7.9362   -4.9116   15.4752 N   0  0  0  0  0  0  0  0  0  0  0  0
    7.7538   -6.7852   16.6934 C   0  0  0  0  0  0  0  0  0  0  0  0
  1 21  4  0
  1 23  4  0
  2  5  1  0
  2 13  4  0
  2 16  4  0
  3  6  4  0
  3  7  4  0
  4 13  4  0
  4 19  4  0
  4 24  4  0
  6 23  4  0
  7 16  1  0
  7 21  4  0
  8 18  1  0
  9 20  4  0
  9 22  4  0
 10 17  1  0
 10 25  2  0
 11 16  4  0
 11 19  4  0
 12 15  4  0
 12 22  4  0
 14 24  4  0
 14 25  4  0
 15 17  4  0
 17 20  4  0
 18 23  1  0
 19 25  4  0
M  END
$$$$

 Created by Python create_sdf_string function

 25 38  0  0  0  0  0  0  0  0999 V2000
   13.0338   -4.7547   21.3462 C   0  0  0  0  0  0  0  0  0  0  0  0
   10.4787   -4.1883   20.9123 C   0  0  0  0  0  0  0  0  0  0  0  0
    8.7779   -4.8433   16.3869 C   0  0  0  0  0  0  0  0  0  0  0  0
   11.4901   -2.9148   17.9042 C   0  0  0  0  0  0  0  0  0  0  0  0
   10.7179   -3.9472   22.3951 Cl  0  0  0  0  0  0  0  0  0  0  0  0
   12.2272   -3.8108   24.9670 C   0  0  0  0  0  0  0  0  0  0  0  0
    3.5473   -8.5210   15.9332 C   0  0  0  0  0  0  0  0  0  0  0  0
    7.4201   -7.9997   16.9458 C   0  0  0  0  0  0  0  0  0  0  0  0
    9.5254   -5.9651   18.3245 C   0  0  0  0  0  0  0  0  0  0  0  0
    4.3852   -9.9403   18.1021 C   0  0  0  0  0  0  0  0  0  0  0  0
    9.5848   -3.6705   16.8731 C   0  0  0  0  0  0  0  0  0  0  0  0
    7.4067   -6.2238   15.8081 S   0  0  0  0  0  0  0  0  0  0  0  0
    5.7286   -9.2331   18.0202 C   0  0  0  0  0  0  0  0  0  0  0  0
   10.5593   -4.7119   18.7914 C   0  0  0  0  0  0  0  0  0  0  0  0
    5.9240   -8.4554   16.9779 C   0  0  0  0  0  0  0  0  0  0  0  0
   12.9566   -4.6002   23.6269 O   0  0  0  0  0  0  0  0  0  0  0  0
    8.4497   -6.0095   17.6947 N   0  0  0  0  0  0  0  0  0  0  0  0
    5.2124   -8.0212   15.9158 C   0  0  0  0  0  0  0  0  0  0  0  0
   12.4699   -5.1873   20.0060 C   0  0  0  0  0  0  0  0  0  0  0  0
    3.2654   -9.1674   17.2271 C   0  0  0  0  0  0  0  0  0  0  0  0
   12.1158   -4.6731   22.3945 C   0  0  0  0  0  0  0  0  0  0  0  0
    7.9867   -4.7976   15.5614 N   0  0  0  0  0  0  0  0  0  0  0  0
    7.7220   -7.0005   16.6318 C   0  0  0  0  0  0  0  0  0  0  0  0
   10.7196   -3.7936   17.7020 He  0  0  0  0  0  0  0  0  0  0  0  0
   10.9693   -4.8196   19.9757 He  0  0  0  0  0  0  0  0  0  0  0  0
  1 19  4  0
  1 21  4  0
  2  5  4  0
  2  7  3  0
  3 11  4  0
  3 17  4  0
  3 22  4  0
  4  6  1  0
  5  7  4  0
  5 10  1  0
  5 21  4  0
  6 16  1  0
  6 17  1  0
  7 14  2  0
  7 18  4  0
  7 20  4  0
  8 10  1  0
  8 12  1  0
  8 15  1  0
  8 23  2  0
  9 14  4  0
 10 13  4  0
 10 20  4  0
 12 17  3  0
 12 20  1  0
 12 22  4  0
 12 23  4  0
 13 15  4  0
 13 16  3  0
 14 16  4  0
 14 20  1  0
 14 23  4  0
 15 18  4  0
 16 17  1  0
 16 21  1  0
 17 18  2  0
 17 21  1  0
 17 23  4  0
M  END
$$$$

 Created by Python create_sdf_string function

 25 28  0  0  0  0  0  0  0  0999 V2000
   13.0124   -5.0293   21.4003 C   0  0  0  0  0  0  0  0  0  0  0  0
   10.5566   -3.8129   17.7931 C   0  0  0  0  0  0  0  0  0  0  0  0
   10.3716   -4.2116   21.0132 C   0  0  0  0  0  0  0  0  0  0  0  0
    8.7958   -4.8492   16.4719 C   0  0  0  0  0  0  0  0  0  0  0  0
   11.5518   -2.7829   17.8803 C   0  0  0  0  0  0  0  0  0  0  0  0
   10.9349   -4.0977   22.2812 C   0  0  0  0  0  0  0  0  0  0  0  0
   11.0709   -4.7151   19.9493 C   0  0  0  0  0  0  0  0  0  0  0  0
   12.1898   -3.9172   24.7368 C   0  0  0  0  0  0  0  0  0  0  0  0
    3.7080   -8.5518   16.1199 C   0  0  0  0  0  0  0  0  0  0  0  0
    7.3928   -7.9988   17.0787 C   0  0  0  0  0  0  0  0  0  0  0  0
    9.5288   -5.9533   18.4329 C   0  0  0  0  0  0  0  0  0  0  0  0
    4.2787   -9.7942   18.0326 C   0  0  0  0  0  0  0  0  0  0  0  0
    9.6875   -3.8195   16.6999 C   0  0  0  0  0  0  0  0  0  0  0  0
    7.3166   -6.1567   15.5870 N   0  0  0  0  0  0  0  0  0  0  0  0
    5.5542   -9.3262   17.9629 C   0  0  0  0  0  0  0  0  0  0  0  0
   10.4177   -4.8375   18.7628 C   0  0  0  0  0  0  0  0  0  0  0  0
    5.9722   -8.4901   16.9926 C   0  0  0  0  0  0  0  0  0  0  0  0
   12.8171   -4.4925   23.6651 O   0  0  0  0  0  0  0  0  0  0  0  0
    8.7660   -5.9655   17.2989 N   0  0  0  0  0  0  0  0  0  0  0  0
    4.9791   -8.1381   16.0351 C   0  0  0  0  0  0  0  0  0  0  0  0
   12.3807   -5.0933   20.1402 C   0  0  0  0  0  0  0  0  0  0  0  0
    3.3496   -9.3913   17.1438 C   0  0  0  0  0  0  0  0  0  0  0  0
   12.2431   -4.5199   22.4099 C   0  0  0  0  0  0  0  0  0  0  0  0
    7.9139   -4.9016   15.5145 N   0  0  0  0  0  0  0  0  0  0  0  0
    7.7823   -6.8163   16.7193 C   0  0  0  0  0  0  0  0  0  0  0  0
  1 21  4  0
  1 23  4  0
  2  5  1  0
  2 13  4  0
  2 16  4  0
  3  6  4  0
  3  7  4  0
  4 13  4  0
  4 19  4  0
  4 24  4  0
  6 23  4  0
  7 16  1  0
  7 21  4  0
  8 18  1  0
  9 20  4  0
  9 22  4  0
 10 17  1  0
 10 25  2  0
 11 16  4  0
 11 19  4  0
 12 15  4  0
 12 22  4  0
 14 24  4  0
 14 25  4  0
 15 17  4  0
 17 20  4  0
 18 23  1  0
 19 25  4  0
M  END
$$$$

 Created by Python create_sdf_string function

 25 35  0  0  0  0  0  0  0  0999 V2000
   12.9383   -4.8379   21.3097 C   0  0  0  0  0  0  0  0  0  0  0  0
   10.6055   -3.7423   18.0455 C   0  0  0  0  0  0  0  0  0  0  0  0
   10.2553   -4.1447   20.7698 C   0  0  0  0  0  0  0  0  0  0  0  0
    8.4197   -4.9418   16.4072 C   0  0  0  0  0  0  0  0  0  0  0  0
   11.6125   -2.7038   18.0835 C   0  0  0  0  0  0  0  0  0  0  0  0
   10.8888   -4.0631   22.3159 C   0  0  0  0  0  0  0  0  0  0  0  0
   11.0367   -4.7368   19.9367 C   0  0  0  0  0  0  0  0  0  0  0  0
   12.3009   -3.9945   24.6726 C   0  0  0  0  0  0  0  0  0  0  0  0
    3.8449   -8.6857   16.1895 C   0  0  0  0  0  0  0  0  0  0  0  0
    7.4422   -8.1057   16.8848 C   0  0  0  0  0  0  0  0  0  0  0  0
    9.5330   -5.9847   18.8496 C   0  0  0  0  0  0  0  0  0  0  0  0
    4.4447   -9.7414   18.0366 C   0  0  0  0  0  0  0  0  0  0  0  0
    9.8494   -3.5993   16.7808 O   0  0  0  0  0  0  0  0  0  0  0  0
    7.3803   -6.2232   15.7323 N   0  0  0  0  0  0  0  0  0  0  0  0
    5.6764   -9.2441   17.9402 C   0  0  0  0  0  0  0  0  0  0  0  0
   10.5315   -4.8768   18.6665 C   0  0  0  0  0  0  0  0  0  0  0  0
    5.8774   -8.3217   17.0743 C   0  0  0  0  0  0  0  0  0  0  0  0
   12.8468   -4.3932   23.6824 O   0  0  0  0  0  0  0  0  0  0  0  0
    8.7409   -6.0623   17.1862 N   0  0  0  0  0  0  0  0  0  0  0  0
    4.9795   -8.2560   16.0635 C   0  0  0  0  0  0  0  0  0  0  0  0
   12.4505   -4.9975   20.3454 C   0  0  0  0  0  0  0  0  0  0  0  0
    3.6314   -9.5712   17.2460 C   0  0  0  0  0  0  0  0  0  0  0  0
   12.3381   -4.5904   22.5154 C   0  0  0  0  0  0  0  0  0  0  0  0
    7.7244   -4.9944   15.4532 N   0  0  0  0  0  0  0  0  0  0  0  0
    7.7771   -6.8304   16.5629 C   0  0  0  0  0  0  0  0  0  0  0  0
  1  9  2  0
  1 20  2  0
  1 21  4  0
  1 23  4  0
  2  5  1  0
  2 11  4  0
  2 13  4  0
  2 16  4  0
  3  6  4  0
  3  7  4  0
  4  8  1  0
  4 10  3  0
  4 13  4  0
  4 16  1  0
  4 19  4  0
  4 24  4  0
  7 16  1  0
  7 21  4  0
  7 22  3  0
  8 18  1  0
  9 20  4  0
  9 22  4  0
 10 17  1  0
 10 25  2  0
 11 13  1  0
 11 16  4  0
 11 19  4  0
 12 15  4  0
 12 22  4  0
 14 18  3  0
 14 24  4  0
 14 25  4  0
 16 17  2  0
 18 23  1  0
 19 25  4  0
M  END
$$$$

 Created by Python create_sdf_string function

 25 28  0  0  0  0  0  0  0  0999 V2000
   13.0246   -4.9757   21.4170 C   0  0  0  0  0  0  0  0  0  0  0  0
   10.5650   -3.7865   17.8464 C   0  0  0  0  0  0  0  0  0  0  0  0
   10.3674   -4.1950   21.0459 C   0  0  0  0  0  0  0  0  0  0  0  0
    8.7802   -4.8562   16.4870 C   0  0  0  0  0  0  0  0  0  0  0  0
   11.5051   -2.6941   17.9913 C   0  0  0  0  0  0  0  0  0  0  0  0
   10.9464   -4.0905   22.3034 C   0  0  0  0  0  0  0  0  0  0  0  0
   11.0715   -4.6946   19.9774 C   0  0  0  0  0  0  0  0  0  0  0  0
   12.2577   -3.9960   24.7160 C   0  0  0  0  0  0  0  0  0  0  0  0
    3.7964   -8.7318   16.1787 C   0  0  0  0  0  0  0  0  0  0  0  0
    7.4323   -8.0617   17.0084 C   0  0  0  0  0  0  0  0  0  0  0  0
    9.5473   -5.9660   18.4244 C   0  0  0  0  0  0  0  0  0  0  0  0
    4.4370   -9.8546   18.1036 C   0  0  0  0  0  0  0  0  0  0  0  0
    9.6852   -3.7697   16.7391 N   0  0  0  0  0  0  0  0  0  0  0  0
    7.2855   -6.1945   15.5701 N   0  0  0  0  0  0  0  0  0  0  0  0
    5.6770   -9.3019   18.0576 C   0  0  0  0  0  0  0  0  0  0  0  0
   10.4271   -4.8329   18.7761 C   0  0  0  0  0  0  0  0  0  0  0  0
    6.0292   -8.5136   17.0213 C   0  0  0  0  0  0  0  0  0  0  0  0
   12.8444   -4.4178   23.6464 O   0  0  0  0  0  0  0  0  0  0  0  0
    8.7451   -5.9614   17.3106 N   0  0  0  0  0  0  0  0  0  0  0  0
    4.9990   -8.2038   16.0664 C   0  0  0  0  0  0  0  0  0  0  0  0
   12.3766   -5.0623   20.1651 C   0  0  0  0  0  0  0  0  0  0  0  0
    3.5120   -9.5464   17.1981 C   0  0  0  0  0  0  0  0  0  0  0  0
   12.2581   -4.4810   22.4183 C   0  0  0  0  0  0  0  0  0  0  0  0
    7.8837   -4.9440   15.4949 N   0  0  0  0  0  0  0  0  0  0  0  0
    7.7872   -6.8139   16.6745 C   0  0  0  0  0  0  0  0  0  0  0  0
  1 21  4  0
  1 23  4  0
  2  5  1  0
  2 13  4  0
  2 16  4  0
  3  6  4  0
  3  7  4  0
  4 13  4  0
  4 19  4  0
  4 24  4  0
  6 23  4  0
  7 16  1  0
  7 21  4  0
  8 18  1  0
  9 20  4  0
  9 22  4  0
 10 17  1  0
 10 25  2  0
 11 16  4  0
 11 19  4  0
 12 15  4  0
 12 22  4  0
 14 24  4  0
 14 25  4  0
 15 17  4  0
 17 20  4  0
 18 23  1  0
 19 25  4  0
M  END
$$$$

 Created by Python create_sdf_string function

 25 33  0  0  0  0  0  0  0  0999 V2000
   13.2072   -4.7511   21.2700 C   0  0  0  0  0  0  0  0  0  0  0  0
   10.6970   -3.6581   17.6836 C   0  0  0  0  0  0  0  0  0  0  0  0
   10.4839   -4.1417   20.8471 C   0  0  0  0  0  0  0  0  0  0  0  0
    8.9020   -4.8897   16.6688 C   0  0  0  0  0  0  0  0  0  0  0  0
   11.5980   -2.4964   18.0602 C   0  0  0  0  0  0  0  0  0  0  0  0
   10.8559   -4.0078   22.5010 C   0  0  0  0  0  0  0  0  0  0  0  0
   10.8543   -4.7614   19.9594 C   0  0  0  0  0  0  0  0  0  0  0  0
   12.3207   -4.0595   24.8177 C   0  0  0  0  0  0  0  0  0  0  0  0
    3.9312   -8.5705   16.2709 C   0  0  0  0  0  0  0  0  0  0  0  0
    7.4754   -8.2807   17.2057 C   0  0  0  0  0  0  0  0  0  0  0  0
    9.6065   -6.0638   18.4430 C   0  0  0  0  0  0  0  0  0  0  0  0
    4.4563   -9.8383   18.0890 C   0  0  0  0  0  0  0  0  0  0  0  0
    7.1870   -6.1381   15.4805 N   0  0  0  0  0  0  0  0  0  0  0  0
    5.6216   -9.4267   18.0860 C   0  0  0  0  0  0  0  0  0  0  0  0
   10.2758   -4.7135   18.6938 C   0  0  0  0  0  0  0  0  0  0  0  0
    6.0668   -8.4765   16.9946 C   0  0  0  0  0  0  0  0  0  0  0  0
   12.8245   -4.6839   23.7255 O   0  0  0  0  0  0  0  0  0  0  0  0
    8.8083   -6.0071   17.2672 N   0  0  0  0  0  0  0  0  0  0  0  0
    5.0535   -8.0513   16.1631 C   0  0  0  0  0  0  0  0  0  0  0  0
   12.4199   -5.2103   20.3001 C   0  0  0  0  0  0  0  0  0  0  0  0
    3.5407   -9.6251   17.2319 C   0  0  0  0  0  0  0  0  0  0  0  0
   12.2941   -4.5810   22.5449 C   0  0  0  0  0  0  0  0  0  0  0  0
    7.8616   -5.0984   15.5307 N   0  0  0  0  0  0  0  0  0  0  0  0
    9.8660   -3.8857   16.6305 He  0  0  0  0  0  0  0  0  0  0  0  0
    7.6770   -6.9860   16.6806 He  0  0  0  0  0  0  0  0  0  0  0  0
  1 20  4  0
  1 22  4  0
  2  5  1  0
  2  9  2  0
  2 10  1  0
  3  6  4  0
  4  5  1  0
  4  7  2  0
  4 18  4  0
  4 22  3  0
  4 23  4  0
  6  9  4  0
  6 22  4  0
  7 15  1  0
  7 20  4  0
  7 21  3  0
  8 17  1  0
  9 19  4  0
  9 21  4  0
 10 16  1  0
 10 17  3  0
 10 19  3  0
 11 15  4  0
 11 18  4  0
 12 14  4  0
 12 21  4  0
 13 14  1  0
 13 23  4  0
 14 16  4  0
 15 16  1  0
 15 19  4  0
 16 19  4  0
 17 22  1  0
M  END
$$$$

 Created by Python create_sdf_string function

 25 28  0  0  0  0  0  0  0  0999 V2000
   13.0233   -5.0352   21.3988 C   0  0  0  0  0  0  0  0  0  0  0  0
   10.5897   -3.7844   17.8023 C   0  0  0  0  0  0  0  0  0  0  0  0
   10.4028   -4.1507   21.0224 C   0  0  0  0  0  0  0  0  0  0  0  0
    8.8756   -4.9369   16.4532 C   0  0  0  0  0  0  0  0  0  0  0  0
   11.4600   -2.6360   18.0187 C   0  0  0  0  0  0  0  0  0  0  0  0
   10.9687   -4.0691   22.3120 C   0  0  0  0  0  0  0  0  0  0  0  0
   11.0931   -4.6761   19.9431 C   0  0  0  0  0  0  0  0  0  0  0  0
   12.3047   -4.0954   24.7848 C   0  0  0  0  0  0  0  0  0  0  0  0
    3.7996   -8.6571   16.2653 C   0  0  0  0  0  0  0  0  0  0  0  0
    7.4370   -8.0738   17.1364 C   0  0  0  0  0  0  0  0  0  0  0  0
    9.5784   -5.9438   18.4214 C   0  0  0  0  0  0  0  0  0  0  0  0
    4.4064   -9.9596   18.0841 C   0  0  0  0  0  0  0  0  0  0  0  0
    9.7628   -3.8690   16.6423 N   0  0  0  0  0  0  0  0  0  0  0  0
    7.2822   -6.2203   15.6263 N   0  0  0  0  0  0  0  0  0  0  0  0
    5.6473   -9.4531   18.0690 C   0  0  0  0  0  0  0  0  0  0  0  0
   10.4554   -4.8244   18.7424 C   0  0  0  0  0  0  0  0  0  0  0  0
    6.0149   -8.5574   17.1154 C   0  0  0  0  0  0  0  0  0  0  0  0
   12.8519   -4.5701   23.6832 O   0  0  0  0  0  0  0  0  0  0  0  0
    8.7963   -6.0137   17.3011 N   0  0  0  0  0  0  0  0  0  0  0  0
    5.0237   -8.1434   16.1835 C   0  0  0  0  0  0  0  0  0  0  0  0
   12.3682   -5.0835   20.1392 C   0  0  0  0  0  0  0  0  0  0  0  0
    3.4870   -9.5466   17.2167 C   0  0  0  0  0  0  0  0  0  0  0  0
   12.2742   -4.5366   22.4375 C   0  0  0  0  0  0  0  0  0  0  0  0
    7.9568   -5.0349   15.4934 N   0  0  0  0  0  0  0  0  0  0  0  0
    7.7811   -6.8646   16.7158 C   0  0  0  0  0  0  0  0  0  0  0  0
  1 21  4  0
  1 23  4  0
  2  5  1  0
  2 13  4  0
  2 16  4  0
  3  6  4  0
  3  7  4  0
  4 13  4  0
  4 19  4  0
  4 24  4  0
  6 23  4  0
  7 16  1  0
  7 21  4  0
  8 18  1  0
  9 20  4  0
  9 22  4  0
 10 17  1  0
 10 25  2  0
 11 16  4  0
 11 19  4  0
 12 15  4  0
 12 22  4  0
 14 24  4  0
 14 25  4  0
 15 17  4  0
 17 20  4  0
 18 23  1  0
 19 25  4  0
M  END
$$$$

 Created by Python create_sdf_string function

 25 35  0  0  0  0  0  0  0  0999 V2000
   13.0632   -5.1363   21.3769 C   0  0  0  0  0  0  0  0  0  0  0  0
   10.6885   -3.9761   17.8431 C   0  0  0  0  0  0  0  0  0  0  0  0
   10.3700   -4.2460   21.0039 C   0  0  0  0  0  0  0  0  0  0  0  0
    8.8678   -4.9979   16.4782 C   0  0  0  0  0  0  0  0  0  0  0  0
   11.4988   -2.6506   18.1280 C   0  0  0  0  0  0  0  0  0  0  0  0
   11.0363   -3.9923   22.3444 C   0  0  0  0  0  0  0  0  0  0  0  0
   11.1512   -4.6719   20.0595 C   0  0  0  0  0  0  0  0  0  0  0  0
   12.2238   -4.1069   24.9274 C   0  0  0  0  0  0  0  0  0  0  0  0
    3.7783   -8.6635   16.4269 C   0  0  0  0  0  0  0  0  0  0  0  0
    7.5140   -8.0023   16.9804 C   0  0  0  0  0  0  0  0  0  0  0  0
    9.4809   -6.1027   18.5336 C   0  0  0  0  0  0  0  0  0  0  0  0
    4.3185   -9.8470   18.0673 C   0  0  0  0  0  0  0  0  0  0  0  0
    9.5504   -3.8181   16.4213 N   0  0  0  0  0  0  0  0  0  0  0  0
    7.3053   -6.1581   15.6034 O   0  0  0  0  0  0  0  0  0  0  0  0
    5.5090   -9.3637   18.0459 C   0  0  0  0  0  0  0  0  0  0  0  0
   10.6645   -4.6530   18.7309 C   0  0  0  0  0  0  0  0  0  0  0  0
    5.9655   -8.6409   17.2184 C   0  0  0  0  0  0  0  0  0  0  0  0
   12.9885   -4.6692   23.6422 O   0  0  0  0  0  0  0  0  0  0  0  0
    8.6296   -5.9212   17.2676 N   0  0  0  0  0  0  0  0  0  0  0  0
    4.9227   -8.1446   16.3108 C   0  0  0  0  0  0  0  0  0  0  0  0
   12.3405   -5.0917   20.1769 C   0  0  0  0  0  0  0  0  0  0  0  0
    3.3875   -9.7400   17.2250 C   0  0  0  0  0  0  0  0  0  0  0  0
   12.1923   -4.6631   22.3668 C   0  0  0  0  0  0  0  0  0  0  0  0
    7.9885   -5.0850   15.4420 N   0  0  0  0  0  0  0  0  0  0  0  0
    7.7396   -6.8083   16.8433 C   0  0  0  0  0  0  0  0  0  0  0  0
  1  9  3  0
  1 21  4  0
  1 23  4  0
  2  5  1  0
  2 16  4  0
  3  6  4  0
  3  7  4  0
  3 22  1  0
  4 13  4  0
  4 19  4  0
  4 24  4  0
  5  6  4  0
  6 23  4  0
  7 16  1  0
  7 21  4  0
  8 21  1  0
  9 20  4  0
  9 22  4  0
 10 17  1  0
 10 25  2  0
 11 16  4  0
 11 19  4  0
 12 15  4  0
 12 16  4  0
 12 18  4  0
 12 22  4  0
 13 14  4  0
 14 20  4  0
 14 24  4  0
 14 25  4  0
 15 17  4  0
 15 22  3  0
 17 20  4  0
 18 23  1  0
 19 25  4  0
M  END
$$$$

 Created by Python create_sdf_string function

 25 28  0  0  0  0  0  0  0  0999 V2000
   13.0358   -5.1428   21.3970 C   0  0  0  0  0  0  0  0  0  0  0  0
   10.5588   -3.8394   17.7886 C   0  0  0  0  0  0  0  0  0  0  0  0
   10.4531   -4.1831   21.0554 C   0  0  0  0  0  0  0  0  0  0  0  0
    8.8396   -4.9439   16.4238 C   0  0  0  0  0  0  0  0  0  0  0  0
   11.4598   -2.6966   17.9964 C   0  0  0  0  0  0  0  0  0  0  0  0
   11.0288   -4.1444   22.3320 C   0  0  0  0  0  0  0  0  0  0  0  0
   11.1103   -4.7266   19.9698 C   0  0  0  0  0  0  0  0  0  0  0  0
   12.2411   -4.1454   24.7975 C   0  0  0  0  0  0  0  0  0  0  0  0
    3.7130   -8.7008   16.3322 C   0  0  0  0  0  0  0  0  0  0  0  0
    7.3094   -8.0143   17.1755 C   0  0  0  0  0  0  0  0  0  0  0  0
    9.5250   -5.9631   18.4587 C   0  0  0  0  0  0  0  0  0  0  0  0
    4.3707   -9.9973   18.1159 C   0  0  0  0  0  0  0  0  0  0  0  0
    9.7657   -3.9303   16.6030 N   0  0  0  0  0  0  0  0  0  0  0  0
    7.3008   -6.2166   15.6169 N   0  0  0  0  0  0  0  0  0  0  0  0
    5.6017   -9.4373   18.0812 C   0  0  0  0  0  0  0  0  0  0  0  0
   10.4317   -4.8365   18.7614 C   0  0  0  0  0  0  0  0  0  0  0  0
    5.9200   -8.5270   17.1494 C   0  0  0  0  0  0  0  0  0  0  0  0
   12.9114   -4.6285   23.6806 O   0  0  0  0  0  0  0  0  0  0  0  0
    8.7390   -6.0145   17.3087 N   0  0  0  0  0  0  0  0  0  0  0  0
    4.9239   -8.1534   16.2566 C   0  0  0  0  0  0  0  0  0  0  0  0
   12.3932   -5.1785   20.1599 C   0  0  0  0  0  0  0  0  0  0  0  0
    3.4149   -9.6149   17.2634 C   0  0  0  0  0  0  0  0  0  0  0  0
   12.3214   -4.6311   22.4448 C   0  0  0  0  0  0  0  0  0  0  0  0
    7.9693   -5.0178   15.4214 N   0  0  0  0  0  0  0  0  0  0  0  0
    7.7428   -6.8352   16.7298 C   0  0  0  0  0  0  0  0  0  0  0  0
  1 21  4  0
  1 23  4  0
  2  5  1  0
  2 13  4  0
  2 16  4  0
  3  6  4  0
  3  7  4  0
  4 13  4  0
  4 19  4  0
  4 24  4  0
  6 23  4  0
  7 16  1  0
  7 21  4  0
  8 18  1  0
  9 20  4  0
  9 22  4  0
 10 17  1  0
 10 25  2  0
 11 16  4  0
 11 19  4  0
 12 15  4  0
 12 22  4  0
 14 24  4  0
 14 25  4  0
 15 17  4  0
 17 20  4  0
 18 23  1  0
 19 25  4  0
M  END
$$$$

 Created by Python create_sdf_string function

 25 29  0  0  0  0  0  0  0  0999 V2000
   12.9728   -4.9938   21.4712 C   0  0  0  0  0  0  0  0  0  0  0  0
   10.6699   -3.8481   17.8595 C   0  0  0  0  0  0  0  0  0  0  0  0
   10.2483   -4.2138   20.9473 C   0  0  0  0  0  0  0  0  0  0  0  0
    8.9113   -4.9800   16.4987 C   0  0  0  0  0  0  0  0  0  0  0  0
   11.4582   -2.8319   17.9100 C   0  0  0  0  0  0  0  0  0  0  0  0
   11.0909   -3.9690   22.3810 C   0  0  0  0  0  0  0  0  0  0  0  0
   11.0029   -4.7975   19.8817 C   0  0  0  0  0  0  0  0  0  0  0  0
   12.2212   -3.9597   24.8385 C   0  0  0  0  0  0  0  0  0  0  0  0
    3.7591   -8.7996   16.4687 C   0  0  0  0  0  0  0  0  0  0  0  0
    7.3780   -7.9640   17.2699 C   0  0  0  0  0  0  0  0  0  0  0  0
    9.5110   -5.9806   18.4540 C   0  0  0  0  0  0  0  0  0  0  0  0
    4.5033   -9.9349   18.1258 C   0  0  0  0  0  0  0  0  0  0  0  0
    9.6812   -4.0135   16.5968 N   0  0  0  0  0  0  0  0  0  0  0  0
    7.2434   -6.2292   15.7178 N   0  0  0  0  0  0  0  0  0  0  0  0
    5.6818   -9.5124   18.1771 C   0  0  0  0  0  0  0  0  0  0  0  0
   10.4708   -4.9464   18.7640 C   0  0  0  0  0  0  0  0  0  0  0  0
    5.9633   -8.5514   17.2343 C   0  0  0  0  0  0  0  0  0  0  0  0
   12.9073   -4.7528   23.7180 O   0  0  0  0  0  0  0  0  0  0  0  0
   12.2652   -5.3827   20.0623 C   0  0  0  0  0  0  0  0  0  0  0  0
    3.4119   -9.7522   17.2366 C   0  0  0  0  0  0  0  0  0  0  0  0
    8.0788   -5.1073   15.4488 N   0  0  0  0  0  0  0  0  0  0  0  0
    7.6816   -6.9311   16.6834 C   0  0  0  0  0  0  0  0  0  0  0  0
    8.8728   -6.0059   17.3076 He  0  0  0  0  0  0  0  0  0  0  0  0
    4.8328   -8.0762   16.2298 He  0  0  0  0  0  0  0  0  0  0  0  0
   12.3398   -4.4537   22.3634 He  0  0  0  0  0  0  0  0  0  0  0  0
  1 19  4  0
  2  3  3  0
  2  5  1  0
  2 12  3  0
  2 13  4  0
  2 16  4  0
  3  6  4  0
  3  7  4  0
  3  9  4  0
  3 22  3  0
  4 13  4  0
  4 21  4  0
  5 10  3  0
  6  7  2  0
  7 16  1  0
  7 19  4  0
  8 18  1  0
  9 20  4  0
 10 17  1  0
 10 22  2  0
 11 16  4  0
 11 19  1  0
 12 15  4  0
 12 20  4  0
 13 21  4  0
 14 21  4  0
 14 22  4  0
 15 17  4  0
 16 17  2  0
M  END
$$$$

 Created by Python create_sdf_string function

 25 28  0  0  0  0  0  0  0  0999 V2000
   12.9822   -5.1700   21.3956 C   0  0  0  0  0  0  0  0  0  0  0  0
   10.5458   -3.9149   17.7722 C   0  0  0  0  0  0  0  0  0  0  0  0
   10.4074   -4.1732   21.0207 C   0  0  0  0  0  0  0  0  0  0  0  0
    8.8805   -4.9898   16.4270 C   0  0  0  0  0  0  0  0  0  0  0  0
   11.4508   -2.8008   17.9160 C   0  0  0  0  0  0  0  0  0  0  0  0
   11.0089   -4.0607   22.2740 C   0  0  0  0  0  0  0  0  0  0  0  0
   11.0567   -4.7946   19.9563 C   0  0  0  0  0  0  0  0  0  0  0  0
   12.2312   -3.9986   24.7310 C   0  0  0  0  0  0  0  0  0  0  0  0
    3.7312   -8.7508   16.3843 C   0  0  0  0  0  0  0  0  0  0  0  0
    7.3018   -8.0085   17.2757 C   0  0  0  0  0  0  0  0  0  0  0  0
    9.5397   -6.0173   18.4572 C   0  0  0  0  0  0  0  0  0  0  0  0
    4.4264  -10.0955   18.1513 C   0  0  0  0  0  0  0  0  0  0  0  0
    9.7798   -3.9751   16.6050 N   0  0  0  0  0  0  0  0  0  0  0  0
    7.2777   -6.2693   15.6284 N   0  0  0  0  0  0  0  0  0  0  0  0
    5.6283   -9.5028   18.1480 C   0  0  0  0  0  0  0  0  0  0  0  0
   10.4217   -4.9128   18.7713 C   0  0  0  0  0  0  0  0  0  0  0  0
    5.9421   -8.5385   17.2250 C   0  0  0  0  0  0  0  0  0  0  0  0
   12.8697   -4.5664   23.6531 O   0  0  0  0  0  0  0  0  0  0  0  0
    8.7672   -6.0298   17.3360 N   0  0  0  0  0  0  0  0  0  0  0  0
    4.9181   -8.1578   16.3232 C   0  0  0  0  0  0  0  0  0  0  0  0
   12.3398   -5.2654   20.1470 C   0  0  0  0  0  0  0  0  0  0  0  0
    3.4592   -9.7115   17.2993 C   0  0  0  0  0  0  0  0  0  0  0  0
   12.2848   -4.5907   22.4180 C   0  0  0  0  0  0  0  0  0  0  0  0
    8.0100   -5.1032   15.4279 N   0  0  0  0  0  0  0  0  0  0  0  0
    7.7228   -6.8559   16.7877 C   0  0  0  0  0  0  0  0  0  0  0  0
  1 21  4  0
  1 23  4  0
  2  5  1  0
  2 13  4  0
  2 16  4  0
  3  6  4  0
  3  7  4  0
  4 13  4  0
  4 19  4  0
  4 24  4  0
  6 23  4  0
  7 16  1  0
  7 21  4  0
  8 18  1  0
  9 20  4  0
  9 22  4  0
 10 17  1  0
 10 25  2  0
 11 16  4  0
 11 19  4  0
 12 15  4  0
 12 22  4  0
 14 24  4  0
 14 25  4  0
 15 17  4  0
 17 20  4  0
 18 23  1  0
 19 25  4  0
M  END
$$$$

 Created by Python create_sdf_string function

 25 35  0  0  0  0  0  0  0  0999 V2000
   13.0565   -5.0511   21.3699 C   0  0  0  0  0  0  0  0  0  0  0  0
   10.5063   -3.9185   17.8223 P   0  0  0  0  0  0  0  0  0  0  0  0
   10.4667   -4.1133   20.9985 C   0  0  0  0  0  0  0  0  0  0  0  0
    8.6924   -4.9602   16.3065 C   0  0  0  0  0  0  0  0  0  0  0  0
   11.6233   -2.7252   17.7944 C   0  0  0  0  0  0  0  0  0  0  0  0
   11.0635   -3.9614   22.2594 C   0  0  0  0  0  0  0  0  0  0  0  0
   11.0201   -4.6741   19.8554 C   0  0  0  0  0  0  0  0  0  0  0  0
   12.2506   -4.0426   24.7547 C   0  0  0  0  0  0  0  0  0  0  0  0
    3.6237   -8.7054   16.1642 C   0  0  0  0  0  0  0  0  0  0  0  0
    7.2614   -7.8964   17.3517 C   0  0  0  0  0  0  0  0  0  0  0  0
    9.5985   -5.9780   18.3352 C   0  0  0  0  0  0  0  0  0  0  0  0
    4.4100  -10.3043   18.2182 C   0  0  0  0  0  0  0  0  0  0  0  0
    9.7879   -4.0651   16.5706 N   0  0  0  0  0  0  0  0  0  0  0  0
    7.1814   -6.2215   15.8274 N   0  0  0  0  0  0  0  0  0  0  0  0
    5.6492   -9.5732   18.0847 C   0  0  0  0  0  0  0  0  0  0  0  0
   10.3044   -4.7872   18.7974 C   0  0  0  0  0  0  0  0  0  0  0  0
    5.9480   -8.6519   17.1611 C   0  0  0  0  0  0  0  0  0  0  0  0
   13.0332   -4.5487   23.5913 O   0  0  0  0  0  0  0  0  0  0  0  0
    8.7668   -6.0519   17.3589 N   0  0  0  0  0  0  0  0  0  0  0  0
    4.9122   -7.9710   16.3759 C   0  0  0  0  0  0  0  0  0  0  0  0
   12.2651   -5.2502   20.0125 C   0  0  0  0  0  0  0  0  0  0  0  0
    3.4097   -9.5820   17.0994 C   0  0  0  0  0  0  0  0  0  0  0  0
   12.3818   -4.4190   22.5395 C   0  0  0  0  0  0  0  0  0  0  0  0
    7.9596   -5.0016   15.3772 N   0  0  0  0  0  0  0  0  0  0  0  0
    7.6692   -6.8731   16.7596 C   0  0  0  0  0  0  0  0  0  0  0  0
  1 19  1  0
  1 21  4  0
  1 23  4  0
  2  5  1  0
  2 13  4  0
  2 16  4  0
  3  6  4  0
  3  7  4  0
  3 15  1  0
  4 13  4  0
  4 19  4  0
  4 24  4  0
  5 14  2  0
  5 19  2  0
  6 23  1  0
  7 16  1  0
  7 20  2  0
  7 21  4  0
  8 18  1  0
  8 23  3  0
  9 20  4  0
  9 22  4  0
 10 17  1  0
 11 16  4  0
 11 19  4  0
 12 15  4  0
 12 22  4  0
 14 24  4  0
 14 25  4  0
 15 17  4  0
 15 25  2  0
 17 20  4  0
 18 23  1  0
 19 25  4  0
 21 23  2  0
M  END
$$$$

 Created by Python create_sdf_string function

 25 28  0  0  0  0  0  0  0  0999 V2000
   13.0013   -5.1057   21.3208 C   0  0  0  0  0  0  0  0  0  0  0  0
   10.5253   -3.9120   17.7233 C   0  0  0  0  0  0  0  0  0  0  0  0
   10.4333   -4.0912   20.9850 C   0  0  0  0  0  0  0  0  0  0  0  0
    8.8397   -4.9736   16.4073 C   0  0  0  0  0  0  0  0  0  0  0  0
   11.4998   -2.8083   17.8441 C   0  0  0  0  0  0  0  0  0  0  0  0
   11.0378   -3.9818   22.2317 C   0  0  0  0  0  0  0  0  0  0  0  0
   11.0602   -4.7203   19.9043 C   0  0  0  0  0  0  0  0  0  0  0  0
   12.3024   -4.0639   24.6849 C   0  0  0  0  0  0  0  0  0  0  0  0
    3.6842   -8.6940   16.3134 C   0  0  0  0  0  0  0  0  0  0  0  0
    7.2275   -7.9571   17.3503 C   0  0  0  0  0  0  0  0  0  0  0  0
    9.5036   -5.9599   18.4338 C   0  0  0  0  0  0  0  0  0  0  0  0
    4.3526  -10.1809   18.0429 C   0  0  0  0  0  0  0  0  0  0  0  0
    9.7428   -3.9661   16.5893 N   0  0  0  0  0  0  0  0  0  0  0  0
    7.1737   -6.2432   15.7126 N   0  0  0  0  0  0  0  0  0  0  0  0
    5.5912   -9.5834   18.0578 C   0  0  0  0  0  0  0  0  0  0  0  0
   10.3989   -4.8760   18.7220 C   0  0  0  0  0  0  0  0  0  0  0  0
    5.8760   -8.5460   17.2303 C   0  0  0  0  0  0  0  0  0  0  0  0
   12.9480   -4.4745   23.5723 O   0  0  0  0  0  0  0  0  0  0  0  0
    8.7478   -6.0114   17.3493 N   0  0  0  0  0  0  0  0  0  0  0  0
    4.8988   -8.1040   16.3346 C   0  0  0  0  0  0  0  0  0  0  0  0
   12.3423   -5.2073   20.1006 C   0  0  0  0  0  0  0  0  0  0  0  0
    3.4161   -9.7060   17.1717 C   0  0  0  0  0  0  0  0  0  0  0  0
   12.3369   -4.5092   22.3746 C   0  0  0  0  0  0  0  0  0  0  0  0
    7.9396   -5.0658   15.4360 N   0  0  0  0  0  0  0  0  0  0  0  0
    7.6715   -6.8058   16.8284 C   0  0  0  0  0  0  0  0  0  0  0  0
  1 21  4  0
  1 23  4  0
  2  5  1  0
  2 13  4  0
  2 16  4  0
  3  6  4  0
  3  7  4  0
  4 13  4  0
  4 19  4  0
  4 24  4  0
  6 23  4  0
  7 16  1  0
  7 21  4  0
  8 18  1  0
  9 20  4  0
  9 22  4  0
 10 17  1  0
 10 25  1  0
 11 16  4  0
 11 19  4  0
 12 15  4  0
 12 22  4  0
 14 24  4  0
 14 25  4  0
 15 17  4  0
 17 20  4  0
 18 23  1  0
 19 25  4  0
M  END
$$$$

 Created by Python create_sdf_string function

 25 33  0  0  0  0  0  0  0  0999 V2000
   13.1038   -5.2025   21.4078 C   0  0  0  0  0  0  0  0  0  0  0  0
   10.7354   -3.8657   17.8207 C   0  0  0  0  0  0  0  0  0  0  0  0
   10.5048   -4.0506   20.9181 C   0  0  0  0  0  0  0  0  0  0  0  0
    8.8115   -5.0377   16.3397 C   0  0  0  0  0  0  0  0  0  0  0  0
   11.4162   -2.7087   17.9034 C   0  0  0  0  0  0  0  0  0  0  0  0
   10.9193   -3.9299   22.0831 C   0  0  0  0  0  0  0  0  0  0  0  0
   11.1036   -4.7455   19.9052 C   0  0  0  0  0  0  0  0  0  0  0  0
   12.1519   -3.8526   24.6930 C   0  0  0  0  0  0  0  0  0  0  0  0
    3.7469   -8.6102   16.2738 C   0  0  0  0  0  0  0  0  0  0  0  0
    7.2462   -7.8992   17.4535 C   0  0  0  0  0  0  0  0  0  0  0  0
    9.4449   -6.0757   18.4899 C   0  0  0  0  0  0  0  0  0  0  0  0
    4.2674  -10.2092   18.0819 C   0  0  0  0  0  0  0  0  0  0  0  0
    9.6970   -4.0296   16.4607 N   0  0  0  0  0  0  0  0  0  0  0  0
    7.3716   -6.1658   15.6369 N   0  0  0  0  0  0  0  0  0  0  0  0
    5.6131   -9.5583   18.1249 C   0  0  0  0  0  0  0  0  0  0  0  0
   10.4646   -4.8114   18.7043 C   0  0  0  0  0  0  0  0  0  0  0  0
    5.8962   -8.6783   17.1932 C   0  0  0  0  0  0  0  0  0  0  0  0
   13.0003   -4.5078   23.7282 O   0  0  0  0  0  0  0  0  0  0  0  0
    8.7676   -5.9738   17.2013 N   0  0  0  0  0  0  0  0  0  0  0  0
   12.4178   -5.2174   19.9714 C   0  0  0  0  0  0  0  0  0  0  0  0
    3.3433   -9.7535   17.2463 C   0  0  0  0  0  0  0  0  0  0  0  0
   12.3779   -4.4253   22.2803 C   0  0  0  0  0  0  0  0  0  0  0  0
    7.9703   -4.9002   15.5003 N   0  0  0  0  0  0  0  0  0  0  0  0
    7.7403   -6.8921   16.8942 C   0  0  0  0  0  0  0  0  0  0  0  0
    4.9868   -8.0948   16.2981 He  0  0  0  0  0  0  0  0  0  0  0  0
  1 11  2  0
  1 20  4  0
  1 22  4  0
  2  5  1  0
  2 13  4  0
  2 16  4  0
  3  6  4  0
  3  7  4  0
  3 22  1  0
  3 24  4  0
  4 13  4  0
  4 19  4  0
  4 22  4  0
  4 23  4  0
  5 17  1  0
  6 22  4  0
  7 16  1  0
  7 20  4  0
  8 18  1  0
  9 21  4  0
 10 17  1  0
 10 24  1  0
 11 16  3  0
 11 19  4  0
 11 22  4  0
 12 15  4  0
 12 21  4  0
 14 23  4  0
 14 24  4  0
 17 22  2  0
 18 21  2  0
 18 22  1  0
 19 24  4  0
M  END
$$$$

 Created by Python create_sdf_string function

 25 28  0  0  0  0  0  0  0  0999 V2000
   13.0165   -5.1465   21.3232 C   0  0  0  0  0  0  0  0  0  0  0  0
   10.5655   -3.8989   17.7167 C   0  0  0  0  0  0  0  0  0  0  0  0
   10.4684   -4.0680   20.9095 C   0  0  0  0  0  0  0  0  0  0  0  0
    8.8602   -4.9786   16.4189 C   0  0  0  0  0  0  0  0  0  0  0  0
   11.4230   -2.7523   17.8768 C   0  0  0  0  0  0  0  0  0  0  0  0
   11.0745   -3.9548   22.1663 C   0  0  0  0  0  0  0  0  0  0  0  0
   11.1178   -4.7420   19.8706 C   0  0  0  0  0  0  0  0  0  0  0  0
   12.1700   -3.8768   24.6316 C   0  0  0  0  0  0  0  0  0  0  0  0
    3.7233   -8.6953   16.3173 C   0  0  0  0  0  0  0  0  0  0  0  0
    7.2364   -7.9930   17.4303 C   0  0  0  0  0  0  0  0  0  0  0  0
    9.5080   -5.9954   18.4339 C   0  0  0  0  0  0  0  0  0  0  0  0
    4.2896  -10.1755   18.0617 C   0  0  0  0  0  0  0  0  0  0  0  0
    9.7870   -3.9915   16.5571 N   0  0  0  0  0  0  0  0  0  0  0  0
    7.2501   -6.2562   15.7118 N   0  0  0  0  0  0  0  0  0  0  0  0
    5.5301   -9.6112   18.1094 C   0  0  0  0  0  0  0  0  0  0  0  0
   10.4334   -4.8932   18.6900 C   0  0  0  0  0  0  0  0  0  0  0  0
    5.8765   -8.5829   17.2738 C   0  0  0  0  0  0  0  0  0  0  0  0
   12.8892   -4.4430   23.5862 O   0  0  0  0  0  0  0  0  0  0  0  0
    8.7288   -6.0143   17.3373 N   0  0  0  0  0  0  0  0  0  0  0  0
    4.9498   -8.1463   16.3361 C   0  0  0  0  0  0  0  0  0  0  0  0
   12.3808   -5.2456   20.0718 C   0  0  0  0  0  0  0  0  0  0  0  0
    3.3790   -9.6875   17.1810 C   0  0  0  0  0  0  0  0  0  0  0  0
   12.3240   -4.5138   22.3421 C   0  0  0  0  0  0  0  0  0  0  0  0
    7.9825   -5.0788   15.4452 N   0  0  0  0  0  0  0  0  0  0  0  0
    7.7123   -6.8098   16.8512 C   0  0  0  0  0  0  0  0  0  0  0  0
  1 21  4  0
  1 23  4  0
  2  5  1  0
  2 13  4  0
  2 16  4  0
  3  6  4  0
  3  7  4  0
  4 13  4  0
  4 19  4  0
  4 24  4  0
  6 23  4  0
  7 16  1  0
  7 21  4  0
  8 18  1  0
  9 20  4  0
  9 22  4  0
 10 17  1  0
 10 25  1  0
 11 16  4  0
 11 19  4  0
 12 15  4  0
 12 22  4  0
 14 24  4  0
 14 25  4  0
 15 17  4  0
 17 20  4  0
 18 23  1  0
 19 25  4  0
M  END
$$$$

 Created by Python create_sdf_string function

 25 33  0  0  0  0  0  0  0  0999 V2000
   13.0316   -5.1283   21.3508 C   0  0  0  0  0  0  0  0  0  0  0  0
   10.5155   -3.8948   17.7165 C   0  0  0  0  0  0  0  0  0  0  0  0
   10.3860   -4.0090   21.0093 C   0  0  0  0  0  0  0  0  0  0  0  0
    8.9322   -4.9736   16.4620 C   0  0  0  0  0  0  0  0  0  0  0  0
   11.4748   -2.7050   17.8434 C   0  0  0  0  0  0  0  0  0  0  0  0
   11.0271   -3.9326   22.2620 C   0  0  0  0  0  0  0  0  0  0  0  0
   11.1592   -4.7701   19.8983 C   0  0  0  0  0  0  0  0  0  0  0  0
   12.1918   -3.9201   24.6016 C   0  0  0  0  0  0  0  0  0  0  0  0
    3.7483   -8.7790   16.4236 C   0  0  0  0  0  0  0  0  0  0  0  0
    7.2444   -7.9987   17.4579 C   0  0  0  0  0  0  0  0  0  0  0  0
    9.4728   -6.0216   18.3825 C   0  0  0  0  0  0  0  0  0  0  0  0
    4.3259  -10.1967   18.1100 C   0  0  0  0  0  0  0  0  0  0  0  0
    9.7942   -3.9442   16.6251 N   0  0  0  0  0  0  0  0  0  0  0  0
    7.2961   -6.2070   15.7139 N   0  0  0  0  0  0  0  0  0  0  0  0
    5.5123   -9.7767   18.1573 C   0  0  0  0  0  0  0  0  0  0  0  0
   10.5161   -4.9188   18.8444 C   0  0  0  0  0  0  0  0  0  0  0  0
    5.8386   -8.5937   17.2820 C   0  0  0  0  0  0  0  0  0  0  0  0
   12.8002   -4.3851   23.5722 O   0  0  0  0  0  0  0  0  0  0  0  0
    8.7450   -6.0497   17.3801 N   0  0  0  0  0  0  0  0  0  0  0  0
    4.9239   -8.0030   16.2562 C   0  0  0  0  0  0  0  0  0  0  0  0
   12.3629   -5.2141   19.9228 C   0  0  0  0  0  0  0  0  0  0  0  0
    3.4626   -9.7310   17.1490 C   0  0  0  0  0  0  0  0  0  0  0  0
   12.2163   -4.5797   22.3778 C   0  0  0  0  0  0  0  0  0  0  0  0
    7.9929   -5.0151   15.3687 N   0  0  0  0  0  0  0  0  0  0  0  0
    7.6623   -6.8599   16.9344 C   0  0  0  0  0  0  0  0  0  0  0  0
  1 19  1  0
  1 21  4  0
  1 23  4  0
  2  5  1  0
  2 13  4  0
  2 16  4  0
  2 25  1  0
  3  6  4  0
  3  7  4  0
  4 13  4  0
  4 24  4  0
  6 12  4  0
  6 23  4  0
  7 21  4  0
  8 18  1  0
  9 10  3  0
  9 15  2  0
  9 20  4  0
  9 22  4  0
 10 17  1  0
 10 22  1  0
 10 25  1  0
 11 16  4  0
 11 17  4  0
 11 19  4  0
 12 15  4  0
 12 22  4  0
 14 24  4  0
 14 25  4  0
 15 17  4  0
 17 20  4  0
 18 23  1  0
 19 25  4  0
M  END
$$$$

 Created by Python create_sdf_string function

 25 28  0  0  0  0  0  0  0  0999 V2000
   12.9873   -5.1439   21.3501 C   0  0  0  0  0  0  0  0  0  0  0  0
   10.5528   -3.9024   17.7421 C   0  0  0  0  0  0  0  0  0  0  0  0
   10.4320   -4.0825   20.9600 C   0  0  0  0  0  0  0  0  0  0  0  0
    8.8718   -4.9683   16.4282 C   0  0  0  0  0  0  0  0  0  0  0  0
   11.4456   -2.7615   17.8745 C   0  0  0  0  0  0  0  0  0  0  0  0
   11.0179   -3.9938   22.2154 C   0  0  0  0  0  0  0  0  0  0  0  0
   11.0823   -4.7280   19.9039 C   0  0  0  0  0  0  0  0  0  0  0  0
   12.1986   -3.9328   24.5981 C   0  0  0  0  0  0  0  0  0  0  0  0
    3.7198   -8.7318   16.3616 C   0  0  0  0  0  0  0  0  0  0  0  0
    7.2155   -7.9774   17.4746 C   0  0  0  0  0  0  0  0  0  0  0  0
    9.5133   -5.9870   18.4522 C   0  0  0  0  0  0  0  0  0  0  0  0
    4.3101  -10.2316   18.0562 C   0  0  0  0  0  0  0  0  0  0  0  0
    9.7739   -3.9705   16.5859 N   0  0  0  0  0  0  0  0  0  0  0  0
    7.2514   -6.2648   15.7393 N   0  0  0  0  0  0  0  0  0  0  0  0
    5.5438   -9.6561   18.1280 C   0  0  0  0  0  0  0  0  0  0  0  0
   10.4242   -4.8797   18.7303 C   0  0  0  0  0  0  0  0  0  0  0  0
    5.8677   -8.6022   17.3133 C   0  0  0  0  0  0  0  0  0  0  0  0
   12.8580   -4.4512   23.5725 O   0  0  0  0  0  0  0  0  0  0  0  0
    8.7423   -6.0232   17.3813 N   0  0  0  0  0  0  0  0  0  0  0  0
    4.9212   -8.1425   16.3958 C   0  0  0  0  0  0  0  0  0  0  0  0
   12.3637   -5.2223   20.0976 C   0  0  0  0  0  0  0  0  0  0  0  0
    3.4058   -9.7414   17.1890 C   0  0  0  0  0  0  0  0  0  0  0  0
   12.2843   -4.5328   22.3539 C   0  0  0  0  0  0  0  0  0  0  0  0
    8.0045   -5.1098   15.4532 N   0  0  0  0  0  0  0  0  0  0  0  0
    7.7020   -6.8088   16.8822 C   0  0  0  0  0  0  0  0  0  0  0  0
  1 21  4  0
  1 23  4  0
  2  5  1  0
  2 13  4  0
  2 16  4  0
  3  6  4  0
  3  7  4  0
  4 13  4  0
  4 19  4  0
  4 24  4  0
  6 23  4  0
  7 16  1  0
  7 21  4  0
  8 18  1  0
  9 20  4  0
  9 22  4  0
 10 17  1  0
 10 25  1  0
 11 16  4  0
 11 19  4  0
 12 15  4  0
 12 22  4  0
 14 24  4  0
 14 25  4  0
 15 17  4  0
 17 20  4  0
 18 23  1  0
 19 25  4  0
M  END
$$$$

 Created by Python create_sdf_string function

 25 33  0  0  0  0  0  0  0  0999 V2000
   12.9989   -5.1291   21.3403 C   0  0  0  0  0  0  0  0  0  0  0  0
   10.5663   -3.7989   17.8626 C   0  0  0  0  0  0  0  0  0  0  0  0
   10.4056   -4.1168   21.0622 C   0  0  0  0  0  0  0  0  0  0  0  0
    8.7555   -4.9417   16.3593 C   0  0  0  0  0  0  0  0  0  0  0  0
   11.5503   -2.7744   17.8748 C   0  0  0  0  0  0  0  0  0  0  0  0
   10.7994   -4.0287   22.2900 C   0  0  0  0  0  0  0  0  0  0  0  0
   11.0567   -4.7347   20.0043 C   0  0  0  0  0  0  0  0  0  0  0  0
   12.1041   -3.9520   24.6382 C   0  0  0  0  0  0  0  0  0  0  0  0
    3.6973   -8.7542   16.2868 C   0  0  0  0  0  0  0  0  0  0  0  0
    7.0711   -8.0232   17.4394 C   0  0  0  0  0  0  0  0  0  0  0  0
    9.4705   -6.0040   18.4461 C   0  0  0  0  0  0  0  0  0  0  0  0
    4.2632  -10.2477   18.1526 C   0  0  0  0  0  0  0  0  0  0  0  0
    9.7725   -3.9497   16.4349 N   0  0  0  0  0  0  0  0  0  0  0  0
    7.1912   -6.2400   15.7702 N   0  0  0  0  0  0  0  0  0  0  0  0
    5.6043   -9.6430   18.0793 C   0  0  0  0  0  0  0  0  0  0  0  0
   10.5311   -4.8768   18.7837 C   0  0  0  0  0  0  0  0  0  0  0  0
    5.8426   -8.5975   17.3248 C   0  0  0  0  0  0  0  0  0  0  0  0
    8.7305   -6.0963   17.4081 N   0  0  0  0  0  0  0  0  0  0  0  0
    4.7978   -8.1374   16.3179 C   0  0  0  0  0  0  0  0  0  0  0  0
   12.3790   -5.2220   20.1441 C   0  0  0  0  0  0  0  0  0  0  0  0
    3.3793   -9.7174   17.2402 C   0  0  0  0  0  0  0  0  0  0  0  0
   12.3486   -4.5395   22.3698 C   0  0  0  0  0  0  0  0  0  0  0  0
    8.0123   -5.2382   15.3820 N   0  0  0  0  0  0  0  0  0  0  0  0
    7.7672   -6.7871   16.7246 P   0  0  0  0  0  0  0  0  0  0  0  0
   12.8282   -4.4036   23.5156 He  0  0  0  0  0  0  0  0  0  0  0  0
  1 14  3  0
  1 20  4  0
  1 22  4  0
  2  5  1  0
  2 13  4  0
  2 16  4  0
  3  7  4  0
  3 18  1  0
  4 13  4  0
  4 18  4  0
  4 23  4  0
  5  7  3  0
  5 11  3  0
  6 22  4  0
  7 16  1  0
  7 20  4  0
  8 18  2  0
  9 12  2  0
  9 19  4  0
  9 21  4  0
 10 17  1  0
 10 24  1  0
 11 14  2  0
 11 16  4  0
 11 18  4  0
 12 15  4  0
 12 21  4  0
 14 23  4  0
 14 24  2  0
 15 17  4  0
 17 19  4  0
 17 22  1  0
 18 24  4  0
M  END
$$$$

 Created by Python create_sdf_string function

 25 28  0  0  0  0  0  0  0  0999 V2000
   13.0019   -5.1336   21.3728 C   0  0  0  0  0  0  0  0  0  0  0  0
   10.5579   -3.8974   17.7638 C   0  0  0  0  0  0  0  0  0  0  0  0
   10.3840   -4.1590   20.9999 C   0  0  0  0  0  0  0  0  0  0  0  0
    8.8439   -5.0250   16.4029 C   0  0  0  0  0  0  0  0  0  0  0  0
   11.5051   -2.7765   17.8896 C   0  0  0  0  0  0  0  0  0  0  0  0
   10.9813   -4.0632   22.2564 C   0  0  0  0  0  0  0  0  0  0  0  0
   11.0654   -4.7514   19.9295 C   0  0  0  0  0  0  0  0  0  0  0  0
   12.1816   -3.9723   24.6700 C   0  0  0  0  0  0  0  0  0  0  0  0
    3.6411   -8.7777   16.3597 C   0  0  0  0  0  0  0  0  0  0  0  0
    7.1435   -7.9846   17.4322 C   0  0  0  0  0  0  0  0  0  0  0  0
    9.5019   -5.9665   18.4599 C   0  0  0  0  0  0  0  0  0  0  0  0
    4.2703  -10.2295   18.0941 C   0  0  0  0  0  0  0  0  0  0  0  0
    9.7510   -3.9642   16.5723 N   0  0  0  0  0  0  0  0  0  0  0  0
    7.2277   -6.3374   15.7248 N   0  0  0  0  0  0  0  0  0  0  0  0
    5.4967   -9.6375   18.1176 C   0  0  0  0  0  0  0  0  0  0  0  0
   10.4077   -4.8744   18.7433 C   0  0  0  0  0  0  0  0  0  0  0  0
    5.7907   -8.6121   17.2824 C   0  0  0  0  0  0  0  0  0  0  0  0
   12.8650   -4.4208   23.5901 O   0  0  0  0  0  0  0  0  0  0  0  0
    8.7215   -6.0372   17.3740 N   0  0  0  0  0  0  0  0  0  0  0  0
    4.8294   -8.1884   16.3703 C   0  0  0  0  0  0  0  0  0  0  0  0
   12.3593   -5.2159   20.1203 C   0  0  0  0  0  0  0  0  0  0  0  0
    3.3525   -9.7675   17.2277 C   0  0  0  0  0  0  0  0  0  0  0  0
   12.2726   -4.5428   22.3773 C   0  0  0  0  0  0  0  0  0  0  0  0
    7.9760   -5.1778   15.4220 N   0  0  0  0  0  0  0  0  0  0  0  0
    7.6552   -6.8300   16.8639 C   0  0  0  0  0  0  0  0  0  0  0  0
  1 21  4  0
  1 23  4  0
  2  5  1  0
  2 13  4  0
  2 16  4  0
  3  6  4  0
  3  7  4  0
  4 13  4  0
  4 19  4  0
  4 24  4  0
  6 23  4  0
  7 16  1  0
  7 21  4  0
  8 18  1  0
  9 20  4  0
  9 22  4  0
 10 17  1  0
 10 25  1  0
 11 16  4  0
 11 19  4  0
 12 15  4  0
 12 22  4  0
 14 24  4  0
 14 25  4  0
 15 17  4  0
 17 20  4  0
 18 23  1  0
 19 25  4  0
M  END
$$$$

 Created by Python create_sdf_string function

 25 35  0  0  0  0  0  0  0  0999 V2000
   12.9788   -5.1297   21.3989 C   0  0  0  0  0  0  0  0  0  0  0  0
   10.5735   -3.8635   17.6800 C   0  0  0  0  0  0  0  0  0  0  0  0
   10.4684   -4.2264   21.0154 C   0  0  0  0  0  0  0  0  0  0  0  0
    8.8608   -5.0281   16.3513 C   0  0  0  0  0  0  0  0  0  0  0  0
   11.3684   -2.6579   17.7582 C   0  0  0  0  0  0  0  0  0  0  0  0
   10.8722   -4.0826   22.2330 C   0  0  0  0  0  0  0  0  0  0  0  0
   11.1004   -4.7969   19.8201 C   0  0  0  0  0  0  0  0  0  0  0  0
   12.0946   -3.9969   24.7652 C   0  0  0  0  0  0  0  0  0  0  0  0
    3.6787   -8.8900   16.4380 C   0  0  0  0  0  0  0  0  0  0  0  0
    7.0817   -7.9558   17.3878 C   0  0  0  0  0  0  0  0  0  0  0  0
    9.5459   -5.9380   18.4917 C   0  0  0  0  0  0  0  0  0  0  0  0
    4.2660  -10.1543   18.2340 C   0  0  0  0  0  0  0  0  0  0  0  0
    9.6981   -3.9056   16.5395 N   0  0  0  0  0  0  0  0  0  0  0  0
    7.2049   -6.3545   15.8220 N   0  0  0  0  0  0  0  0  0  0  0  0
    5.5110   -9.6451   18.2024 C   0  0  0  0  0  0  0  0  0  0  0  0
   10.3712   -4.8099   18.8376 C   0  0  0  0  0  0  0  0  0  0  0  0
    5.9010   -8.6476   17.2461 C   0  0  0  0  0  0  0  0  0  0  0  0
   12.8811   -4.4341   23.6428 O   0  0  0  0  0  0  0  0  0  0  0  0
    8.6879   -6.0562   17.3522 N   0  0  0  0  0  0  0  0  0  0  0  0
    4.8201   -8.1875   16.4323 C   0  0  0  0  0  0  0  0  0  0  0  0
   12.3752   -5.2215   20.0694 C   0  0  0  0  0  0  0  0  0  0  0  0
    3.4098   -9.7707   17.3125 C   0  0  0  0  0  0  0  0  0  0  0  0
   12.2838   -4.5607   22.4058 C   0  0  0  0  0  0  0  0  0  0  0  0
    7.8587   -5.2102   15.4475 N   0  0  0  0  0  0  0  0  0  0  0  0
    7.6080   -6.7837   16.9418 C   0  0  0  0  0  0  0  0  0  0  0  0
  1 21  4  0
  1 23  4  0
  2 13  2  0
  2 16  4  0
  3  6  4  0
  3  7  4  0
  4 13  4  0
  4 19  4  0
  4 24  4  0
  5 20  3  0
  6 18  4  0
  6 23  4  0
  7 16  1  0
  7 21  4  0
  8 18  1  0
  8 24  1  0
  9 10  3  0
  9 14  2  0
  9 20  4  0
  9 22  4  0
 10 17  1  0
 10 25  1  0
 11 16  4  0
 11 17  2  0
 11 19  4  0
 12 15  4  0
 14 24  4  0
 14 25  4  0
 15 17  4  0
 16 17  1  0
 16 22  3  0
 17 20  4  0
 18 23  1  0
 19 25  4  0
 21 23  2  0
M  END
$$$$

 Created by Python create_sdf_string function

 25 28  0  0  0  0  0  0  0  0999 V2000
   12.9998   -5.1420   21.3476 C   0  0  0  0  0  0  0  0  0  0  0  0
   10.5114   -3.8886   17.7127 C   0  0  0  0  0  0  0  0  0  0  0  0
   10.4079   -4.1990   21.0004 C   0  0  0  0  0  0  0  0  0  0  0  0
    8.8005   -5.0280   16.4285 C   0  0  0  0  0  0  0  0  0  0  0  0
   11.3727   -2.7398   17.8224 C   0  0  0  0  0  0  0  0  0  0  0  0
   10.9962   -4.1200   22.2605 C   0  0  0  0  0  0  0  0  0  0  0  0
   11.0823   -4.7587   19.9100 C   0  0  0  0  0  0  0  0  0  0  0  0
   12.1382   -4.0201   24.7147 C   0  0  0  0  0  0  0  0  0  0  0  0
    3.6641   -8.8467   16.4335 C   0  0  0  0  0  0  0  0  0  0  0  0
    7.1165   -7.9795   17.4608 C   0  0  0  0  0  0  0  0  0  0  0  0
    9.5014   -5.9513   18.4813 C   0  0  0  0  0  0  0  0  0  0  0  0
    4.2924  -10.2120   18.2165 C   0  0  0  0  0  0  0  0  0  0  0  0
    9.7205   -4.0022   16.5581 N   0  0  0  0  0  0  0  0  0  0  0  0
    7.1554   -6.3479   15.7813 N   0  0  0  0  0  0  0  0  0  0  0  0
    5.5154   -9.6229   18.1990 C   0  0  0  0  0  0  0  0  0  0  0  0
   10.4126   -4.8723   18.7130 C   0  0  0  0  0  0  0  0  0  0  0  0
    5.7996   -8.6271   17.3339 C   0  0  0  0  0  0  0  0  0  0  0  0
   12.8581   -4.4593   23.6087 O   0  0  0  0  0  0  0  0  0  0  0  0
    8.7036   -6.0199   17.4102 N   0  0  0  0  0  0  0  0  0  0  0  0
    4.8325   -8.2480   16.4134 C   0  0  0  0  0  0  0  0  0  0  0  0
   12.3912   -5.2099   20.1092 C   0  0  0  0  0  0  0  0  0  0  0  0
    3.3803   -9.8004   17.3343 C   0  0  0  0  0  0  0  0  0  0  0  0
   12.2868   -4.5768   22.3994 C   0  0  0  0  0  0  0  0  0  0  0  0
    7.9112   -5.2181   15.4450 N   0  0  0  0  0  0  0  0  0  0  0  0
    7.6294   -6.8445   16.9094 C   0  0  0  0  0  0  0  0  0  0  0  0
  1 21  4  0
  1 23  4  0
  2  5  1  0
  2 13  4  0
  2 16  4  0
  3  6  4  0
  3  7  4  0
  4 13  4  0
  4 19  4  0
  4 24  4  0
  6 23  4  0
  7 16  1  0
  7 21  4  0
  8 18  1  0
  9 20  4  0
  9 22  4  0
 10 17  1  0
 10 25  1  0
 11 16  4  0
 11 19  4  0
 12 15  4  0
 12 22  4  0
 14 24  4  0
 14 25  4  0
 15 17  4  0
 17 20  4  0
 18 23  1  0
 19 25  4  0
M  END
$$$$

 Created by Python create_sdf_string function

 25 27  0  0  0  0  0  0  0  0999 V2000
   13.0145   -5.1776   21.3544 C   0  0  0  0  0  0  0  0  0  0  0  0
   10.4914   -3.9547   17.7597 C   0  0  0  0  0  0  0  0  0  0  0  0
   10.4454   -4.2156   20.9477 S   0  0  0  0  0  0  0  0  0  0  0  0
    8.7578   -5.0116   16.4254 C   0  0  0  0  0  0  0  0  0  0  0  0
   11.4083   -2.7208   17.8136 C   0  0  0  0  0  0  0  0  0  0  0  0
   10.9840   -4.1778   22.2460 C   0  0  0  0  0  0  0  0  0  0  0  0
   11.1032   -4.7853   19.8407 C   0  0  0  0  0  0  0  0  0  0  0  0
   12.1788   -4.0332   24.7324 C   0  0  0  0  0  0  0  0  0  0  0  0
    3.6503   -8.7946   16.4785 C   0  0  0  0  0  0  0  0  0  0  0  0
    9.4816   -5.8982   18.5597 C   0  0  0  0  0  0  0  0  0  0  0  0
    4.3149  -10.2018   18.1618 C   0  0  0  0  0  0  0  0  0  0  0  0
    9.6604   -4.0309   16.5309 N   0  0  0  0  0  0  0  0  0  0  0  0
    7.1491   -6.2768   15.8378 N   0  0  0  0  0  0  0  0  0  0  0  0
    5.6129   -9.7004   18.2731 C   0  0  0  0  0  0  0  0  0  0  0  0
   10.3906   -4.8022   18.7740 C   0  0  0  0  0  0  0  0  0  0  0  0
    5.8023   -8.6231   17.3161 C   0  0  0  0  0  0  0  0  0  0  0  0
   12.9111   -4.4164   23.6724 O   0  0  0  0  0  0  0  0  0  0  0  0
    8.6905   -6.1047   17.4030 N   0  0  0  0  0  0  0  0  0  0  0  0
    4.9411   -8.3355   16.3261 C   0  0  0  0  0  0  0  0  0  0  0  0
   12.3161   -5.2656   20.0587 C   0  0  0  0  0  0  0  0  0  0  0  0
    3.4160   -9.8900   17.3068 C   0  0  0  0  0  0  0  0  0  0  0  0
   12.2875   -4.4957   22.3859 C   0  0  0  0  0  0  0  0  0  0  0  0
    7.8813   -5.2150   15.3700 N   0  0  0  0  0  0  0  0  0  0  0  0
    7.5599   -6.8384   16.8536 C   0  0  0  0  0  0  0  0  0  0  0  0
    7.0912   -7.9780   17.4758 He  0  0  0  0  0  0  0  0  0  0  0  0
  1  9  4  0
  1 20  4  0
  1 22  4  0
  2  5  1  0
  2 12  4  0
  2 22  3  0
  3  6  4  0
  3  7  4  0
  3 18  4  0
  4  5  1  0
  4 18  4  0
  4 23  4  0
  6 22  4  0
  7 20  4  0
  7 21  1  0
  8 17  1  0
  9 19  4  0
  9 21  4  0
 10 15  4  0
 10 18  4  0
 11 14  4  0
 13 23  4  0
 13 24  4  0
 14 16  4  0
 16 19  4  0
 17 22  1  0
 18 24  4  0
M  END
$$$$

 Created by Python create_sdf_string function

 25 28  0  0  0  0  0  0  0  0999 V2000
   13.0082   -5.1601   21.3300 C   0  0  0  0  0  0  0  0  0  0  0  0
   10.4856   -3.9301   17.7170 C   0  0  0  0  0  0  0  0  0  0  0  0
   10.4028   -4.2111   21.0068 C   0  0  0  0  0  0  0  0  0  0  0  0
    8.7885   -5.0423   16.4515 C   0  0  0  0  0  0  0  0  0  0  0  0
   11.3991   -2.7697   17.8337 C   0  0  0  0  0  0  0  0  0  0  0  0
   11.0283   -4.1385   22.2394 C   0  0  0  0  0  0  0  0  0  0  0  0
   11.0770   -4.7797   19.9064 C   0  0  0  0  0  0  0  0  0  0  0  0
   12.1843   -4.0439   24.6790 C   0  0  0  0  0  0  0  0  0  0  0  0
    3.6901   -8.8670   16.4297 C   0  0  0  0  0  0  0  0  0  0  0  0
    7.0975   -7.9612   17.4788 N   0  0  0  0  0  0  0  0  0  0  0  0
    9.4644   -5.9415   18.5147 C   0  0  0  0  0  0  0  0  0  0  0  0
    4.3420  -10.2537   18.1926 C   0  0  0  0  0  0  0  0  0  0  0  0
    9.6956   -4.0259   16.5740 N   0  0  0  0  0  0  0  0  0  0  0  0
    7.1384   -6.3379   15.7887 N   0  0  0  0  0  0  0  0  0  0  0  0
    5.5376   -9.6510   18.2152 C   0  0  0  0  0  0  0  0  0  0  0  0
   10.3897   -4.8820   18.7261 C   0  0  0  0  0  0  0  0  0  0  0  0
    5.8250   -8.6486   17.3474 C   0  0  0  0  0  0  0  0  0  0  0  0
   12.8960   -4.4488   23.5720 O   0  0  0  0  0  0  0  0  0  0  0  0
    8.6537   -6.0331   17.4447 N   0  0  0  0  0  0  0  0  0  0  0  0
    4.8684   -8.2955   16.4024 C   0  0  0  0  0  0  0  0  0  0  0  0
   12.3742   -5.2444   20.1023 C   0  0  0  0  0  0  0  0  0  0  0  0
    3.4161   -9.8386   17.3158 C   0  0  0  0  0  0  0  0  0  0  0  0
   12.3159   -4.5833   22.3755 C   0  0  0  0  0  0  0  0  0  0  0  0
    7.9081   -5.2086   15.4503 N   0  0  0  0  0  0  0  0  0  0  0  0
    7.5672   -6.8463   16.9102 C   0  0  0  0  0  0  0  0  0  0  0  0
  1 21  4  0
  1 23  4  0
  2  5  1  0
  2 13  4  0
  2 16  4  0
  3  6  4  0
  3  7  4  0
  4 13  4  0
  4 19  4  0
  4 24  4  0
  6 23  4  0
  7 16  1  0
  7 21  4  0
  8 18  1  0
  9 20  4  0
  9 22  4  0
 10 17  1  0
 10 25  1  0
 11 16  4  0
 11 19  4  0
 12 15  4  0
 12 22  4  0
 14 24  4  0
 14 25  4  0
 15 17  4  0
 17 20  4  0
 18 23  1  0
 19 25  4  0
M  END
$$$$

 Created by Python create_sdf_string function

 25 32  0  0  0  0  0  0  0  0999 V2000
   13.0064   -5.2423   21.3216 C   0  0  0  0  0  0  0  0  0  0  0  0
   10.4898   -3.8785   17.6770 C   0  0  0  0  0  0  0  0  0  0  0  0
   10.4121   -4.2622   20.9404 C   0  0  0  0  0  0  0  0  0  0  0  0
    8.7287   -5.0323   16.4446 C   0  0  0  0  0  0  0  0  0  0  0  0
   11.3293   -2.7732   17.8232 C   0  0  0  0  0  0  0  0  0  0  0  0
   10.9903   -4.2075   22.2431 C   0  0  0  0  0  0  0  0  0  0  0  0
   11.1287   -4.7712   19.8857 C   0  0  0  0  0  0  0  0  0  0  0  0
   12.2482   -4.1021   24.7101 C   0  0  0  0  0  0  0  0  0  0  0  0
    3.6771   -8.8109   16.4848 C   0  0  0  0  0  0  0  0  0  0  0  0
    7.1015   -7.9639   17.4266 N   0  0  0  0  0  0  0  0  0  0  0  0
    9.5650   -5.9513   18.5697 C   0  0  0  0  0  0  0  0  0  0  0  0
    4.3700  -10.2506   18.2361 C   0  0  0  0  0  0  0  0  0  0  0  0
    9.6717   -4.0090   16.6306 N   0  0  0  0  0  0  0  0  0  0  0  0
    7.1206   -6.4338   15.7325 N   0  0  0  0  0  0  0  0  0  0  0  0
    5.4681   -9.6888   18.2981 C   0  0  0  0  0  0  0  0  0  0  0  0
   10.3777   -4.8878   18.6780 C   0  0  0  0  0  0  0  0  0  0  0  0
    5.7841   -8.7039   17.3545 C   0  0  0  0  0  0  0  0  0  0  0  0
   12.9282   -4.4413   23.6215 O   0  0  0  0  0  0  0  0  0  0  0  0
    8.6532   -5.9991   17.5335 N   0  0  0  0  0  0  0  0  0  0  0  0
    4.8041   -8.3003   16.3863 C   0  0  0  0  0  0  0  0  0  0  0  0
   12.3112   -5.2432   20.0283 C   0  0  0  0  0  0  0  0  0  0  0  0
    3.4161   -9.8798   17.2928 C   0  0  0  0  0  0  0  0  0  0  0  0
   12.2830   -4.5797   22.3133 C   0  0  0  0  0  0  0  0  0  0  0  0
    7.9250   -5.2779   15.4694 N   0  0  0  0  0  0  0  0  0  0  0  0
    7.6193   -6.7883   16.8672 C   0  0  0  0  0  0  0  0  0  0  0  0
  1  3  2  0
  1 11  3  0
  1 21  4  0
  1 23  4  0
  2  5  1  0
  2 13  4  0
  2 16  4  0
  3  6  2  0
  3  7  4  0
  3 21  2  0
  4 13  4  0
  4 19  4  0
  4 24  4  0
  5  7  4  0
  6 23  4  0
  7 16  1  0
  7 21  4  0
  8 18  1  0
  9 20  4  0
  9 22  4  0
 10 17  1  0
 10 25  1  0
 11 16  4  0
 11 19  4  0
 12 15  4  0
 12 22  4  0
 14 24  4  0
 14 25  4  0
 15 17  4  0
 17 20  4  0
 18 23  1  0
 19 25  4  0
M  END
$$$$

 Created by Python create_sdf_string function

 25 28  0  0  0  0  0  0  0  0999 V2000
   13.0209   -5.2031   21.3017 C   0  0  0  0  0  0  0  0  0  0  0  0
   10.4629   -3.9250   17.7001 C   0  0  0  0  0  0  0  0  0  0  0  0
   10.4242   -4.2504   20.9900 C   0  0  0  0  0  0  0  0  0  0  0  0
    8.7750   -5.0514   16.4723 C   0  0  0  0  0  0  0  0  0  0  0  0
   11.3518   -2.7794   17.8123 C   0  0  0  0  0  0  0  0  0  0  0  0
   11.0389   -4.1916   22.2188 C   0  0  0  0  0  0  0  0  0  0  0  0
   11.0895   -4.7979   19.8805 C   0  0  0  0  0  0  0  0  0  0  0  0
   12.2380   -4.1073   24.6689 C   0  0  0  0  0  0  0  0  0  0  0  0
    3.6516   -8.8891   16.4605 C   0  0  0  0  0  0  0  0  0  0  0  0
    7.0672   -7.9751   17.4871 N   0  0  0  0  0  0  0  0  0  0  0  0
    9.4912   -5.9569   18.5226 C   0  0  0  0  0  0  0  0  0  0  0  0
    4.3115  -10.2745   18.2130 C   0  0  0  0  0  0  0  0  0  0  0  0
    9.6598   -4.0156   16.5925 N   0  0  0  0  0  0  0  0  0  0  0  0
    7.1566   -6.4136   15.7705 N   0  0  0  0  0  0  0  0  0  0  0  0
    5.4931   -9.6524   18.2420 C   0  0  0  0  0  0  0  0  0  0  0  0
   10.3974   -4.8861   18.7064 C   0  0  0  0  0  0  0  0  0  0  0  0
    5.7792   -8.6528   17.3668 C   0  0  0  0  0  0  0  0  0  0  0  0
   12.9225   -4.4877   23.5434 O   0  0  0  0  0  0  0  0  0  0  0  0
    8.6858   -6.0408   17.4657 N   0  0  0  0  0  0  0  0  0  0  0  0
    4.8217   -8.2959   16.4410 C   0  0  0  0  0  0  0  0  0  0  0  0
   12.4015   -5.2644   20.0677 C   0  0  0  0  0  0  0  0  0  0  0  0
    3.3841   -9.8692   17.3247 C   0  0  0  0  0  0  0  0  0  0  0  0
   12.3317   -4.6310   22.3548 C   0  0  0  0  0  0  0  0  0  0  0  0
    7.9109   -5.2544   15.4769 N   0  0  0  0  0  0  0  0  0  0  0  0
    7.5808   -6.8724   16.9254 C   0  0  0  0  0  0  0  0  0  0  0  0
  1 21  4  0
  1 23  4  0
  2  5  1  0
  2 13  4  0
  2 16  4  0
  3  6  4  0
  3  7  4  0
  4 13  4  0
  4 19  4  0
  4 24  4  0
  6 23  4  0
  7 16  1  0
  7 21  4  0
  8 18  1  0
  9 20  4  0
  9 22  4  0
 10 17  1  0
 10 25  1  0
 11 16  4  0
 11 19  4  0
 12 15  4  0
 12 22  4  0
 14 24  4  0
 14 25  4  0
 15 17  4  0
 17 20  4  0
 18 23  1  0
 19 25  4  0
M  END
$$$$

 Created by Python create_sdf_string function

 25 28  0  0  0  0  0  0  0  0999 V2000
   13.0746   -5.1805   21.3212 C   0  0  0  0  0  0  0  0  0  0  0  0
   10.4312   -3.9244   17.6293 C   0  0  0  0  0  0  0  0  0  0  0  0
   10.3499   -4.2832   20.9713 C   0  0  0  0  0  0  0  0  0  0  0  0
    8.7267   -5.0754   16.4751 C   0  0  0  0  0  0  0  0  0  0  0  0
   11.3160   -2.7466   17.7634 C   0  0  0  0  0  0  0  0  0  0  0  0
   11.0905   -4.1572   22.2432 C   0  0  0  0  0  0  0  0  0  0  0  0
   11.1179   -4.7880   19.8602 C   0  0  0  0  0  0  0  0  0  0  0  0
   12.2637   -4.1318   24.6797 C   0  0  0  0  0  0  0  0  0  0  0  0
    3.6331   -8.8720   16.4626 C   0  0  0  0  0  0  0  0  0  0  0  0
    7.0722   -7.9575   17.5121 N   0  0  0  0  0  0  0  0  0  0  0  0
    9.5096   -5.9416   18.4710 C   0  0  0  0  0  0  0  0  0  0  0  0
    4.3053  -10.2203   18.2689 C   0  0  0  0  0  0  0  0  0  0  0  0
    9.5642   -3.9961   16.6436 N   0  0  0  0  0  0  0  0  0  0  0  0
    7.2211   -6.4086   15.7654 Cl  0  0  0  0  0  0  0  0  0  0  0  0
    5.4586   -9.5462   18.1987 C   0  0  0  0  0  0  0  0  0  0  0  0
   10.3784   -4.9014   18.6925 C   0  0  0  0  0  0  0  0  0  0  0  0
    5.7812   -8.6497   17.3412 C   0  0  0  0  0  0  0  0  0  0  0  0
   12.9760   -4.4885   23.5410 O   0  0  0  0  0  0  0  0  0  0  0  0
    4.8793   -8.2792   16.4533 C   0  0  0  0  0  0  0  0  0  0  0  0
   12.3645   -5.2013   20.0487 C   0  0  0  0  0  0  0  0  0  0  0  0
    3.3833   -9.8583   17.3479 C   0  0  0  0  0  0  0  0  0  0  0  0
   12.3211   -4.6745   22.3547 C   0  0  0  0  0  0  0  0  0  0  0  0
    7.9123   -5.3682   15.4272 N   0  0  0  0  0  0  0  0  0  0  0  0
    7.5725   -6.9092   16.9754 C   0  0  0  0  0  0  0  0  0  0  0  0
    8.6508   -6.0074   17.4727 He  0  0  0  0  0  0  0  0  0  0  0  0
  1 20  4  0
  1 22  4  0
  2  5  1  0
  2 13  4  0
  2 16  4  0
  2 21  2  0
  3  6  4  0
  3  7  4  0
  4 13  4  0
  4 23  4  0
  6 22  4  0
  7 16  1  0
  7 20  4  0
  8 18  1  0
  9 19  4  0
  9 21  4  0
 10 17  1  0
 10 22  2  0
 10 24  1  0
 11 16  4  0
 12 15  4  0
 12 21  4  0
 14 23  4  0
 14 24  4  0
 15 17  4  0
 17 19  4  0
 18 22  1  0
 21 22  3  0
M  END
$$$$

 Created by Python create_sdf_string function

 25 28  0  0  0  0  0  0  0  0999 V2000
   13.0476   -5.1845   21.2530 C   0  0  0  0  0  0  0  0  0  0  0  0
   10.4278   -3.9255   17.6736 C   0  0  0  0  0  0  0  0  0  0  0  0
   10.4125   -4.2746   21.0066 C   0  0  0  0  0  0  0  0  0  0  0  0
    8.7475   -5.0575   16.4396 C   0  0  0  0  0  0  0  0  0  0  0  0
   11.3268   -2.7921   17.7843 C   0  0  0  0  0  0  0  0  0  0  0  0
   11.0544   -4.1974   22.2199 C   0  0  0  0  0  0  0  0  0  0  0  0
   11.0879   -4.7912   19.8879 C   0  0  0  0  0  0  0  0  0  0  0  0
   12.2910   -4.1503   24.6246 C   0  0  0  0  0  0  0  0  0  0  0  0
    3.6233   -8.9035   16.4537 C   0  0  0  0  0  0  0  0  0  0  0  0
    7.0409   -7.9565   17.5159 N   0  0  0  0  0  0  0  0  0  0  0  0
    9.4770   -5.9644   18.4986 C   0  0  0  0  0  0  0  0  0  0  0  0
    4.2909  -10.2243   18.2406 C   0  0  0  0  0  0  0  0  0  0  0  0
    9.5950   -4.0136   16.5728 N   0  0  0  0  0  0  0  0  0  0  0  0
    7.2203   -6.4145   15.7786 N   0  0  0  0  0  0  0  0  0  0  0  0
    5.4616   -9.5895   18.2353 C   0  0  0  0  0  0  0  0  0  0  0  0
   10.3846   -4.8910   18.6918 C   0  0  0  0  0  0  0  0  0  0  0  0
    5.7576   -8.6155   17.3702 C   0  0  0  0  0  0  0  0  0  0  0  0
   12.9640   -4.5329   23.5189 O   0  0  0  0  0  0  0  0  0  0  0  0
    8.6709   -6.0481   17.4533 C   0  0  0  0  0  0  0  0  0  0  0  0
    4.7970   -8.2999   16.4390 C   0  0  0  0  0  0  0  0  0  0  0  0
   12.4023   -5.2256   20.0476 C   0  0  0  0  0  0  0  0  0  0  0  0
    3.3641   -9.8544   17.3489 C   0  0  0  0  0  0  0  0  0  0  0  0
   12.3550   -4.6463   22.3305 C   0  0  0  0  0  0  0  0  0  0  0  0
    7.9091   -5.2971   15.4290 N   0  0  0  0  0  0  0  0  0  0  0  0
    7.5750   -6.9012   16.9508 C   0  0  0  0  0  0  0  0  0  0  0  0
  1 21  4  0
  1 23  4  0
  2  5  1  0
  2 13  4  0
  2 16  4  0
  3  6  4  0
  3  7  4  0
  4 13  4  0
  4 19  4  0
  4 24  4  0
  6 23  4  0
  7 16  1  0
  7 21  4  0
  8 18  1  0
  9 20  4  0
  9 22  4  0
 10 17  1  0
 10 25  1  0
 11 16  4  0
 11 19  4  0
 12 15  4  0
 12 22  4  0
 14 24  4  0
 14 25  4  0
 15 17  4  0
 17 20  4  0
 18 23  1  0
 19 25  4  0
M  END
$$$$

 Created by Python create_sdf_string function

 25 32  0  0  0  0  0  0  0  0999 V2000
   13.0432   -5.2656   21.2526 C   0  0  0  0  0  0  0  0  0  0  0  0
   10.3788   -3.9181   17.7016 C   0  0  0  0  0  0  0  0  0  0  0  0
   10.3951   -4.3483   20.9570 C   0  0  0  0  0  0  0  0  0  0  0  0
    8.7246   -5.1708   16.4305 C   0  0  0  0  0  0  0  0  0  0  0  0
   11.3270   -2.7986   17.8175 C   0  0  0  0  0  0  0  0  0  0  0  0
   11.0938   -4.1573   22.2106 C   0  0  0  0  0  0  0  0  0  0  0  0
   11.1220   -4.7251   19.8386 C   0  0  0  0  0  0  0  0  0  0  0  0
   12.2610   -4.1566   24.6570 C   0  0  0  0  0  0  0  0  0  0  0  0
    3.6493   -8.9290   16.4821 C   0  0  0  0  0  0  0  0  0  0  0  0
    9.5411   -5.9137   18.4705 C   0  0  0  0  0  0  0  0  0  0  0  0
    4.3144  -10.2035   18.2548 C   0  0  0  0  0  0  0  0  0  0  0  0
    9.5382   -3.9857   16.5519 N   0  0  0  0  0  0  0  0  0  0  0  0
    7.1752   -6.3906   15.6720 N   0  0  0  0  0  0  0  0  0  0  0  0
    5.5134   -9.5485   18.2685 C   0  0  0  0  0  0  0  0  0  0  0  0
   10.4293   -4.8565   18.6822 C   0  0  0  0  0  0  0  0  0  0  0  0
    5.7346   -8.5682   17.3797 C   0  0  0  0  0  0  0  0  0  0  0  0
   12.9784   -4.5833   23.5239 O   0  0  0  0  0  0  0  0  0  0  0  0
    8.6317   -6.0396   17.4473 C   0  0  0  0  0  0  0  0  0  0  0  0
    4.7881   -8.2629   16.4784 C   0  0  0  0  0  0  0  0  0  0  0  0
   12.3683   -5.1726   20.0999 C   0  0  0  0  0  0  0  0  0  0  0  0
    3.3695   -9.9014   17.4781 C   0  0  0  0  0  0  0  0  0  0  0  0
   12.3421   -4.6411   22.3504 C   0  0  0  0  0  0  0  0  0  0  0  0
    7.9555   -5.2765   15.4547 N   0  0  0  0  0  0  0  0  0  0  0  0
    7.5741   -6.9323   16.9062 C   0  0  0  0  0  0  0  0  0  0  0  0
    7.0576   -7.9135   17.4900 He  0  0  0  0  0  0  0  0  0  0  0  0
  1 20  4  0
  1 22  4  0
  2  5  1  0
  2 12  4  0
  2 15  4  0
  2 21  3  0
  3  6  4  0
  3  7  4  0
  4 12  4  0
  4 18  4  0
  4 23  4  0
  5 24  1  0
  6 22  4  0
  7 15  1  0
  7 20  4  0
  8 11  1  0
  8 14  3  0
  8 17  1  0
  8 22  2  0
  9 19  4  0
  9 21  4  0
 10 15  4  0
 10 18  4  0
 11 14  4  0
 11 21  4  0
 13 23  4  0
 13 24  4  0
 14 16  4  0
 14 19  1  0
 16 19  4  0
 17 22  1  0
 18 24  4  0
M  END
$$$$

 Created by Python create_sdf_string function

 25 28  0  0  0  0  0  0  0  0999 V2000
   13.0416   -5.2095   21.2429 C   0  0  0  0  0  0  0  0  0  0  0  0
   10.4095   -3.9083   17.6718 C   0  0  0  0  0  0  0  0  0  0  0  0
   10.4273   -4.2803   20.9935 C   0  0  0  0  0  0  0  0  0  0  0  0
    8.7510   -5.0675   16.4287 C   0  0  0  0  0  0  0  0  0  0  0  0
   11.3346   -2.7944   17.8178 C   0  0  0  0  0  0  0  0  0  0  0  0
   11.0722   -4.2077   22.2066 C   0  0  0  0  0  0  0  0  0  0  0  0
   11.0879   -4.7842   19.8689 C   0  0  0  0  0  0  0  0  0  0  0  0
   12.2938   -4.1717   24.6051 C   0  0  0  0  0  0  0  0  0  0  0  0
    3.6078   -8.9247   16.4941 C   0  0  0  0  0  0  0  0  0  0  0  0
    7.0443   -7.9305   17.5082 N   0  0  0  0  0  0  0  0  0  0  0  0
    9.5026   -5.9620   18.5056 C   0  0  0  0  0  0  0  0  0  0  0  0
    4.3138  -10.2375   18.2915 C   0  0  0  0  0  0  0  0  0  0  0  0
    9.5909   -4.0162   16.5554 N   0  0  0  0  0  0  0  0  0  0  0  0
    7.1741   -6.4210   15.7135 N   0  0  0  0  0  0  0  0  0  0  0  0
    5.4729   -9.5548   18.2587 C   0  0  0  0  0  0  0  0  0  0  0  0
   10.3844   -4.8729   18.6907 C   0  0  0  0  0  0  0  0  0  0  0  0
    5.7448   -8.5889   17.3949 C   0  0  0  0  0  0  0  0  0  0  0  0
   12.9687   -4.5993   23.5034 O   0  0  0  0  0  0  0  0  0  0  0  0
    8.6742   -6.0519   17.4237 C   0  0  0  0  0  0  0  0  0  0  0  0
    4.7804   -8.2991   16.5015 C   0  0  0  0  0  0  0  0  0  0  0  0
   12.3990   -5.2265   20.0356 C   0  0  0  0  0  0  0  0  0  0  0  0
    3.3579   -9.8792   17.4030 C   0  0  0  0  0  0  0  0  0  0  0  0
   12.3633   -4.6724   22.3137 C   0  0  0  0  0  0  0  0  0  0  0  0
    7.9123   -5.2778   15.3950 N   0  0  0  0  0  0  0  0  0  0  0  0
    7.5717   -6.8869   16.9185 C   0  0  0  0  0  0  0  0  0  0  0  0
  1 21  4  0
  1 23  4  0
  2  5  1  0
  2 13  4  0
  2 16  4  0
  3  6  4  0
  3  7  4  0
  4 13  4  0
  4 19  4  0
  4 24  4  0
  6 23  4  0
  7 16  1  0
  7 21  4  0
  8 18  1  0
  9 20  4  0
  9 22  4  0
 10 17  1  0
 10 25  1  0
 11 16  4  0
 11 19  4  0
 12 15  4  0
 12 22  4  0
 14 24  4  0
 14 25  4  0
 15 17  4  0
 17 20  4  0
 18 23  1  0
 19 25  4  0
M  END
$$$$

 Created by Python create_sdf_string function

 25 29  0  0  0  0  0  0  0  0999 V2000
   13.0398   -5.1760   21.2262 C   0  0  0  0  0  0  0  0  0  0  0  0
   10.4384   -3.9425   17.6201 C   0  0  0  0  0  0  0  0  0  0  0  0
   10.4655   -4.3062   20.9521 C   0  0  0  0  0  0  0  0  0  0  0  0
    8.7558   -5.1098   16.4736 C   0  0  0  0  0  0  0  0  0  0  0  0
   11.3080   -2.7554   17.7898 C   0  0  0  0  0  0  0  0  0  0  0  0
   11.0742   -4.2532   22.1990 C   0  0  0  0  0  0  0  0  0  0  0  0
   11.0970   -4.7642   19.9197 C   0  0  0  0  0  0  0  0  0  0  0  0
   12.2675   -4.1027   24.5737 C   0  0  0  0  0  0  0  0  0  0  0  0
    3.5663   -8.9286   16.4450 C   0  0  0  0  0  0  0  0  0  0  0  0
    7.0301   -7.9113   17.5433 N   0  0  0  0  0  0  0  0  0  0  0  0
    9.4504   -5.9322   18.4990 C   0  0  0  0  0  0  0  0  0  0  0  0
    4.3003  -10.1785   18.2811 C   0  0  0  0  0  0  0  0  0  0  0  0
    9.5979   -4.0359   16.5772 N   0  0  0  0  0  0  0  0  0  0  0  0
    7.1360   -6.4373   15.7302 N   0  0  0  0  0  0  0  0  0  0  0  0
    5.4735   -9.5467   18.2566 C   0  0  0  0  0  0  0  0  0  0  0  0
   10.3929   -4.8668   18.7160 C   0  0  0  0  0  0  0  0  0  0  0  0
    5.7642   -8.6074   17.3594 C   0  0  0  0  0  0  0  0  0  0  0  0
   12.9585   -4.5976   23.5345 O   0  0  0  0  0  0  0  0  0  0  0  0
    8.6718   -6.0887   17.4394 C   0  0  0  0  0  0  0  0  0  0  0  0
    4.8000   -8.2972   16.5214 C   0  0  0  0  0  0  0  0  0  0  0  0
   12.3769   -5.2324   19.9939 C   0  0  0  0  0  0  0  0  0  0  0  0
    3.3642   -9.9197   17.4677 C   0  0  0  0  0  0  0  0  0  0  0  0
   12.3325   -4.6603   22.3297 C   0  0  0  0  0  0  0  0  0  0  0  0
    7.8994   -5.3041   15.4402 N   0  0  0  0  0  0  0  0  0  0  0  0
    7.6325   -6.8597   16.8518 C   0  0  0  0  0  0  0  0  0  0  0  0
  1 21  4  0
  1 23  4  0
  2  5  1  0
  2  9  1  0
  2 13  4  0
  2 16  4  0
  3  7  4  0
  4 13  4  0
  4 19  4  0
  4 24  4  0
  6 23  4  0
  7 16  1  0
  7 21  4  0
  8 18  1  0
  9 20  4  0
  9 22  4  0
 10 17  1  0
 10 25  1  0
 11 16  4  0
 11 19  4  0
 12 15  4  0
 12 22  4  0
 14 24  4  0
 14 25  4  0
 15 17  4  0
 17 20  4  0
 18 23  1  0
 19 25  4  0
 20 21  1  0
M  END
$$$$

 Created by Python create_sdf_string function

 25 28  0  0  0  0  0  0  0  0999 V2000
   13.0520   -5.1876   21.2195 C   0  0  0  0  0  0  0  0  0  0  0  0
   10.4330   -3.9432   17.6561 C   0  0  0  0  0  0  0  0  0  0  0  0
   10.4354   -4.2883   20.9927 C   0  0  0  0  0  0  0  0  0  0  0  0
    8.7518   -5.0848   16.4249 C   0  0  0  0  0  0  0  0  0  0  0  0
   11.3167   -2.7994   17.7917 C   0  0  0  0  0  0  0  0  0  0  0  0
   11.0771   -4.2444   22.2024 C   0  0  0  0  0  0  0  0  0  0  0  0
   11.0881   -4.7979   19.8639 C   0  0  0  0  0  0  0  0  0  0  0  0
   12.3044   -4.1276   24.5577 C   0  0  0  0  0  0  0  0  0  0  0  0
    3.5784   -8.9468   16.4878 C   0  0  0  0  0  0  0  0  0  0  0  0
    7.0159   -7.9402   17.5180 N   0  0  0  0  0  0  0  0  0  0  0  0
    9.4702   -5.9639   18.5169 C   0  0  0  0  0  0  0  0  0  0  0  0
    4.3011  -10.2169   18.2925 C   0  0  0  0  0  0  0  0  0  0  0  0
    9.6177   -4.0541   16.5443 N   0  0  0  0  0  0  0  0  0  0  0  0
    7.1466   -6.4334   15.7307 N   0  0  0  0  0  0  0  0  0  0  0  0
    5.4608   -9.5701   18.2780 C   0  0  0  0  0  0  0  0  0  0  0  0
   10.3763   -4.8937   18.6895 C   0  0  0  0  0  0  0  0  0  0  0  0
    5.7331   -8.5976   17.3912 C   0  0  0  0  0  0  0  0  0  0  0  0
   12.9669   -4.6163   23.4848 O   0  0  0  0  0  0  0  0  0  0  0  0
    8.6601   -6.0565   17.4238 C   0  0  0  0  0  0  0  0  0  0  0  0
    4.7463   -8.3133   16.4788 C   0  0  0  0  0  0  0  0  0  0  0  0
   12.4110   -5.2290   20.0118 C   0  0  0  0  0  0  0  0  0  0  0  0
    3.3498   -9.8911   17.4137 C   0  0  0  0  0  0  0  0  0  0  0  0
   12.3778   -4.6866   22.3024 C   0  0  0  0  0  0  0  0  0  0  0  0
    7.8854   -5.3006   15.4071 N   0  0  0  0  0  0  0  0  0  0  0  0
    7.5683   -6.8901   16.9203 C   0  0  0  0  0  0  0  0  0  0  0  0
  1 21  4  0
  1 23  4  0
  2  5  1  0
  2 13  4  0
  2 16  4  0
  3  6  4  0
  3  7  4  0
  4 13  4  0
  4 19  4  0
  4 24  4  0
  6 23  4  0
  7 16  1  0
  7 21  4  0
  8 18  1  0
  9 20  4  0
  9 22  4  0
 10 17  1  0
 10 25  1  0
 11 16  4  0
 11 19  4  0
 12 15  4  0
 12 22  4  0
 14 24  4  0
 14 25  4  0
 15 17  4  0
 17 20  4  0
 18 23  1  0
 19 25  4  0
M  END
$$$$

 Created by Python create_sdf_string function

 25 31  0  0  0  0  0  0  0  0999 V2000
   13.0669   -5.2064   21.1957 C   0  0  0  0  0  0  0  0  0  0  0  0
   10.4615   -3.9477   17.6697 C   0  0  0  0  0  0  0  0  0  0  0  0
   10.3840   -4.2886   20.9962 C   0  0  0  0  0  0  0  0  0  0  0  0
    8.7589   -5.1113   16.4386 C   0  0  0  0  0  0  0  0  0  0  0  0
   11.3592   -2.8362   17.8337 C   0  0  0  0  0  0  0  0  0  0  0  0
   11.0650   -4.2455   22.2167 C   0  0  0  0  0  0  0  0  0  0  0  0
   11.1016   -4.7794   19.8248 C   0  0  0  0  0  0  0  0  0  0  0  0
   12.3016   -4.0508   24.5332 C   0  0  0  0  0  0  0  0  0  0  0  0
    3.5851   -8.9801   16.4499 C   0  0  0  0  0  0  0  0  0  0  0  0
    7.0017   -7.8596   17.5169 N   0  0  0  0  0  0  0  0  0  0  0  0
    9.4698   -5.9785   18.5366 C   0  0  0  0  0  0  0  0  0  0  0  0
    4.3495  -10.2444   18.3309 C   0  0  0  0  0  0  0  0  0  0  0  0
    9.6397   -4.0701   16.5412 N   0  0  0  0  0  0  0  0  0  0  0  0
    7.1856   -6.4855   15.7081 N   0  0  0  0  0  0  0  0  0  0  0  0
    5.4385   -9.5883   18.2567 C   0  0  0  0  0  0  0  0  0  0  0  0
   10.3817   -4.8832   18.6798 C   0  0  0  0  0  0  0  0  0  0  0  0
    5.7416   -8.5910   17.3721 C   0  0  0  0  0  0  0  0  0  0  0  0
   12.9335   -4.5908   23.4908 O   0  0  0  0  0  0  0  0  0  0  0  0
    8.6703   -6.0264   17.4458 C   0  0  0  0  0  0  0  0  0  0  0  0
    4.7183   -8.3109   16.4749 C   0  0  0  0  0  0  0  0  0  0  0  0
   12.4377   -5.2024   19.9849 C   0  0  0  0  0  0  0  0  0  0  0  0
    3.3595   -9.8538   17.4335 C   0  0  0  0  0  0  0  0  0  0  0  0
   12.3396   -4.6956   22.2593 C   0  0  0  0  0  0  0  0  0  0  0  0
    7.8441   -5.3289   15.4025 N   0  0  0  0  0  0  0  0  0  0  0  0
    7.5224   -6.8854   16.9344 C   0  0  0  0  0  0  0  0  0  0  0  0
  1 21  4  0
  1 23  4  0
  2  5  1  0
  2 13  4  0
  2 16  4  0
  3  6  4  0
  3  7  4  0
  4 13  4  0
  4 19  4  0
  4 24  4  0
  6 23  4  0
  7 16  1  0
  7 19  3  0
  7 21  4  0
  8 18  1  0
  9 10  3  0
  9 20  4  0
  9 22  4  0
  9 23  2  0
 10 17  1  0
 10 25  1  0
 11 16  4  0
 11 19  4  0
 12 15  4  0
 12 22  4  0
 14 24  4  0
 14 25  4  0
 15 17  4  0
 17 20  4  0
 18 23  1  0
 19 25  4  0
M  END
$$$$

 Created by Python create_sdf_string function

 25 28  0  0  0  0  0  0  0  0999 V2000
   13.0781   -5.2032   21.1786 C   0  0  0  0  0  0  0  0  0  0  0  0
   10.4502   -3.9642   17.6528 C   0  0  0  0  0  0  0  0  0  0  0  0
   10.4046   -4.3017   21.0000 C   0  0  0  0  0  0  0  0  0  0  0  0
    8.7537   -5.0936   16.4110 C   0  0  0  0  0  0  0  0  0  0  0  0
   11.3708   -2.8491   17.8219 C   0  0  0  0  0  0  0  0  0  0  0  0
   11.0632   -4.2521   22.1928 C   0  0  0  0  0  0  0  0  0  0  0  0
   11.0915   -4.7958   19.8556 C   0  0  0  0  0  0  0  0  0  0  0  0
   12.3147   -4.0727   24.5093 C   0  0  0  0  0  0  0  0  0  0  0  0
    3.5740   -8.9788   16.4864 C   0  0  0  0  0  0  0  0  0  0  0  0
    6.9713   -7.9008   17.5352 N   0  0  0  0  0  0  0  0  0  0  0  0
    9.4544   -5.9682   18.5178 C   0  0  0  0  0  0  0  0  0  0  0  0
    4.3090  -10.2523   18.3163 C   0  0  0  0  0  0  0  0  0  0  0  0
    9.6419   -4.0767   16.5281 N   0  0  0  0  0  0  0  0  0  0  0  0
    7.1473   -6.4690   15.7278 N   0  0  0  0  0  0  0  0  0  0  0  0
    5.4610   -9.5836   18.2774 C   0  0  0  0  0  0  0  0  0  0  0  0
   10.3769   -4.9086   18.6860 C   0  0  0  0  0  0  0  0  0  0  0  0
    5.7091   -8.5958   17.3902 C   0  0  0  0  0  0  0  0  0  0  0  0
   12.9541   -4.6142   23.4526 O   0  0  0  0  0  0  0  0  0  0  0  0
    8.6490   -6.0395   17.4248 C   0  0  0  0  0  0  0  0  0  0  0  0
    4.7191   -8.3285   16.4667 C   0  0  0  0  0  0  0  0  0  0  0  0
   12.4305   -5.2092   19.9824 C   0  0  0  0  0  0  0  0  0  0  0  0
    3.3501   -9.9000   17.4261 C   0  0  0  0  0  0  0  0  0  0  0  0
   12.3773   -4.6987   22.2709 C   0  0  0  0  0  0  0  0  0  0  0  0
    7.8748   -5.3318   15.3856 N   0  0  0  0  0  0  0  0  0  0  0  0
    7.5346   -6.8868   16.9343 C   0  0  0  0  0  0  0  0  0  0  0  0
  1 21  4  0
  1 23  4  0
  2  5  1  0
  2 13  4  0
  2 16  4  0
  3  6  4  0
  3  7  4  0
  4 13  4  0
  4 19  4  0
  4 24  4  0
  6 23  4  0
  7 16  1  0
  7 21  4  0
  8 18  1  0
  9 20  4  0
  9 22  4  0
 10 17  1  0
 10 25  1  0
 11 16  4  0
 11 19  4  0
 12 15  4  0
 12 22  4  0
 14 24  4  0
 14 25  4  0
 15 17  4  0
 17 20  4  0
 18 23  1  0
 19 25  4  0
M  END
$$$$

 Created by Python create_sdf_string function

 25 30  0  0  0  0  0  0  0  0999 V2000
   13.0785   -5.2145   21.1432 C   0  0  0  0  0  0  0  0  0  0  0  0
   10.4557   -3.9917   17.6779 C   0  0  0  0  0  0  0  0  0  0  0  0
   10.4105   -4.2752   21.0144 C   0  0  0  0  0  0  0  0  0  0  0  0
    8.7990   -5.0852   16.4429 C   0  0  0  0  0  0  0  0  0  0  0  0
   11.3498   -2.8209   17.8049 C   0  0  0  0  0  0  0  0  0  0  0  0
   11.0413   -4.2388   22.1891 C   0  0  0  0  0  0  0  0  0  0  0  0
   11.1012   -4.8214   19.8440 C   0  0  0  0  0  0  0  0  0  0  0  0
   12.3167   -4.0644   24.5555 C   0  0  0  0  0  0  0  0  0  0  0  0
    3.5326   -8.9836   16.4849 C   0  0  0  0  0  0  0  0  0  0  0  0
    6.9709   -7.9369   17.5411 N   0  0  0  0  0  0  0  0  0  0  0  0
    9.4808   -5.9960   18.5237 C   0  0  0  0  0  0  0  0  0  0  0  0
    4.3009  -10.2760   18.3279 C   0  0  0  0  0  0  0  0  0  0  0  0
    9.6013   -4.0635   16.5443 N   0  0  0  0  0  0  0  0  0  0  0  0
    7.1468   -6.4227   15.7242 N   0  0  0  0  0  0  0  0  0  0  0  0
    5.4143   -9.5844   18.2718 C   0  0  0  0  0  0  0  0  0  0  0  0
   10.3612   -4.8846   18.6344 C   0  0  0  0  0  0  0  0  0  0  0  0
    5.7326   -8.5843   17.4071 C   0  0  0  0  0  0  0  0  0  0  0  0
   12.9081   -4.6083   23.4508 O   0  0  0  0  0  0  0  0  0  0  0  0
    8.6772   -6.0536   17.4176 C   0  0  0  0  0  0  0  0  0  0  0  0
    4.7348   -8.3626   16.4640 C   0  0  0  0  0  0  0  0  0  0  0  0
   12.4147   -5.1994   19.9898 C   0  0  0  0  0  0  0  0  0  0  0  0
    3.3609   -9.8937   17.4198 C   0  0  0  0  0  0  0  0  0  0  0  0
   12.3782   -4.6386   22.2522 C   0  0  0  0  0  0  0  0  0  0  0  0
    7.8640   -5.3286   15.3965 N   0  0  0  0  0  0  0  0  0  0  0  0
    7.4768   -6.8968   16.9358 C   0  0  0  0  0  0  0  0  0  0  0  0
  1 21  4  0
  1 23  4  0
  2  5  1  0
  2 13  4  0
  2 16  4  0
  3  6  4  0
  3  7  4  0
  4 13  4  0
  4 19  4  0
  4 24  4  0
  6 20  2  0
  6 23  4  0
  7 16  1  0
  7 21  4  0
  7 25  4  0
  8 18  1  0
  9 20  4  0
  9 22  4  0
 10 17  1  0
 10 25  1  0
 11 16  4  0
 11 19  4  0
 12 15  4  0
 12 22  4  0
 14 24  4  0
 14 25  4  0
 15 17  4  0
 17 20  4  0
 18 23  1  0
 19 25  4  0
M  END
$$$$

 Created by Python create_sdf_string function

 25 28  0  0  0  0  0  0  0  0999 V2000
   13.0801   -5.1935   21.1604 C   0  0  0  0  0  0  0  0  0  0  0  0
   10.4408   -3.9758   17.6478 C   0  0  0  0  0  0  0  0  0  0  0  0
   10.4159   -4.3000   20.9884 C   0  0  0  0  0  0  0  0  0  0  0  0
    8.7593   -5.0920   16.4150 C   0  0  0  0  0  0  0  0  0  0  0  0
   11.3613   -2.8482   17.8091 C   0  0  0  0  0  0  0  0  0  0  0  0
   11.0742   -4.2392   22.1846 C   0  0  0  0  0  0  0  0  0  0  0  0
   11.0874   -4.8083   19.8561 C   0  0  0  0  0  0  0  0  0  0  0  0
   12.3384   -4.0862   24.5268 C   0  0  0  0  0  0  0  0  0  0  0  0
    3.5473   -8.9902   16.4898 C   0  0  0  0  0  0  0  0  0  0  0  0
    6.9578   -7.9249   17.5456 N   0  0  0  0  0  0  0  0  0  0  0  0
    9.4620   -5.9925   18.5066 C   0  0  0  0  0  0  0  0  0  0  0  0
    4.2728  -10.2663   18.3055 C   0  0  0  0  0  0  0  0  0  0  0  0
    9.6336   -4.0749   16.5305 N   0  0  0  0  0  0  0  0  0  0  0  0
    7.1235   -6.4319   15.7446 N   0  0  0  0  0  0  0  0  0  0  0  0
    5.4192   -9.5890   18.2848 C   0  0  0  0  0  0  0  0  0  0  0  0
   10.3736   -4.9220   18.6781 C   0  0  0  0  0  0  0  0  0  0  0  0
    5.6893   -8.6072   17.3999 C   0  0  0  0  0  0  0  0  0  0  0  0
   12.9495   -4.6116   23.4376 O   0  0  0  0  0  0  0  0  0  0  0  0
    8.6424   -6.0582   17.4187 C   0  0  0  0  0  0  0  0  0  0  0  0
    4.7053   -8.3505   16.4596 C   0  0  0  0  0  0  0  0  0  0  0  0
   12.4157   -5.2172   19.9749 C   0  0  0  0  0  0  0  0  0  0  0  0
    3.3256   -9.9235   17.4139 C   0  0  0  0  0  0  0  0  0  0  0  0
   12.3866   -4.6772   22.2561 C   0  0  0  0  0  0  0  0  0  0  0  0
    7.8845   -5.3138   15.3930 N   0  0  0  0  0  0  0  0  0  0  0  0
    7.5114   -6.8962   16.9348 C   0  0  0  0  0  0  0  0  0  0  0  0
  1 21  4  0
  1 23  4  0
  2  5  1  0
  2 13  4  0
  2 16  4  0
  3  6  4  0
  3  7  4  0
  4 13  4  0
  4 19  4  0
  4 24  4  0
  6 23  4  0
  7 16  1  0
  7 21  4  0
  8 18  1  0
  9 20  4  0
  9 22  4  0
 10 17  1  0
 10 25  1  0
 11 16  4  0
 11 19  4  0
 12 15  4  0
 12 22  4  0
 14 24  4  0
 14 25  4  0
 15 17  4  0
 17 20  4  0
 18 23  1  0
 19 25  4  0
M  END
$$$$

 Created by Python create_sdf_string function

 25 28  0  0  0  0  0  0  0  0999 V2000
   13.0625   -5.1724   21.1583 C   0  0  0  0  0  0  0  0  0  0  0  0
   10.4408   -3.9540   17.6871 C   0  0  0  0  0  0  0  0  0  0  0  0
   10.3926   -4.2837   21.0011 C   0  0  0  0  0  0  0  0  0  0  0  0
    8.7479   -5.1200   16.4033 C   0  0  0  0  0  0  0  0  0  0  0  0
   11.3537   -2.8814   17.8223 C   0  0  0  0  0  0  0  0  0  0  0  0
   11.0677   -4.2119   22.1621 C   0  0  0  0  0  0  0  0  0  0  0  0
   11.0823   -4.8281   19.8688 C   0  0  0  0  0  0  0  0  0  0  0  0
   12.3363   -4.1008   24.5005 C   0  0  0  0  0  0  0  0  0  0  0  0
    3.5537   -8.9963   16.4786 C   0  0  0  0  0  0  0  0  0  0  0  0
    6.9473   -7.9214   17.5373 N   0  0  0  0  0  0  0  0  0  0  0  0
    9.4789   -6.0005   18.4950 C   0  0  0  0  0  0  0  0  0  0  0  0
    4.2641  -10.2707   18.3078 C   0  0  0  0  0  0  0  0  0  0  0  0
    9.6150   -4.0966   16.5290 N   0  0  0  0  0  0  0  0  0  0  0  0
    7.1047   -6.4170   15.7242 N   0  0  0  0  0  0  0  0  0  0  0  0
    5.4290   -9.5636   18.2696 C   0  0  0  0  0  0  0  0  0  0  0  0
   10.3694   -4.8942   18.6646 C   0  0  0  0  0  0  0  0  0  0  0  0
    5.7022   -8.6195   17.3735 C   0  0  0  0  0  0  0  0  0  0  0  0
   12.9457   -4.6301   23.4393 O   0  0  0  0  0  0  0  0  0  0  0  0
    8.6515   -6.0440   17.4050 C   0  0  0  0  0  0  0  0  0  0  0  0
    4.7088   -8.3678   16.4703 C   0  0  0  0  0  0  0  0  0  0  0  0
   12.4073   -5.2164   19.9521 C   0  0  0  0  0  0  0  0  0  0  0  0
    3.3277   -9.8941   17.4089 C   0  0  0  0  0  0  0  0  0  0  0  0
   12.3945   -4.7077   22.3085 C   0  0  0  0  0  0  0  0  0  0  0  0
    7.9247   -5.3203   15.3609 N   0  0  0  0  0  0  0  0  0  0  0  0
    7.5110   -6.9150   16.9682 C   0  0  0  0  0  0  0  0  0  0  0  0
  1 21  4  0
  1 23  4  0
  2  5  1  0
  2 13  4  0
  2 16  4  0
  3  6  4  0
  3  7  4  0
  4  9  2  0
  4 19  4  0
  4 24  4  0
  5 10  3  0
  6 23  4  0
  7 16  1  0
  7 21  4  0
  8 18  1  0
  9 20  4  0
  9 22  4  0
 10 25  1  0
 11 16  4  0
 11 19  4  0
 12 15  4  0
 12 22  4  0
 14 24  4  0
 14 25  4  0
 15 17  4  0
 17 20  4  0
 18 23  1  0
 19 25  4  0
M  END
$$$$

 Created by Python create_sdf_string function

 25 28  0  0  0  0  0  0  0  0999 V2000
   13.0725   -5.1925   21.1500 C   0  0  0  0  0  0  0  0  0  0  0  0
   10.4346   -3.9757   17.6538 C   0  0  0  0  0  0  0  0  0  0  0  0
   10.4081   -4.2974   20.9918 C   0  0  0  0  0  0  0  0  0  0  0  0
    8.7639   -5.1046   16.4030 C   0  0  0  0  0  0  0  0  0  0  0  0
   11.3696   -2.8672   17.8104 C   0  0  0  0  0  0  0  0  0  0  0  0
   11.0741   -4.2350   22.1723 C   0  0  0  0  0  0  0  0  0  0  0  0
   11.0827   -4.8134   19.8561 C   0  0  0  0  0  0  0  0  0  0  0  0
   12.3568   -4.1218   24.4849 C   0  0  0  0  0  0  0  0  0  0  0  0
    3.5417   -9.0006   16.4803 C   0  0  0  0  0  0  0  0  0  0  0  0
    6.9383   -7.9230   17.5282 N   0  0  0  0  0  0  0  0  0  0  0  0
    9.4568   -5.9967   18.5056 C   0  0  0  0  0  0  0  0  0  0  0  0
    4.2561  -10.2748   18.3108 C   0  0  0  0  0  0  0  0  0  0  0  0
    9.6436   -4.0881   16.5314 N   0  0  0  0  0  0  0  0  0  0  0  0
    7.1132   -6.4251   15.7390 N   0  0  0  0  0  0  0  0  0  0  0  0
    5.4120   -9.5974   18.2874 C   0  0  0  0  0  0  0  0  0  0  0  0
   10.3674   -4.9257   18.6823 C   0  0  0  0  0  0  0  0  0  0  0  0
    5.6564   -8.6253   17.3919 C   0  0  0  0  0  0  0  0  0  0  0  0
   12.9694   -4.6416   23.4220 O   0  0  0  0  0  0  0  0  0  0  0  0
    8.6392   -6.0661   17.4185 C   0  0  0  0  0  0  0  0  0  0  0  0
    4.6878   -8.3707   16.4606 C   0  0  0  0  0  0  0  0  0  0  0  0
   12.4145   -5.2221   19.9715 C   0  0  0  0  0  0  0  0  0  0  0  0
    3.3053   -9.9324   17.4128 C   0  0  0  0  0  0  0  0  0  0  0  0
   12.3859   -4.6974   22.2545 C   0  0  0  0  0  0  0  0  0  0  0  0
    7.8975   -5.3265   15.3708 N   0  0  0  0  0  0  0  0  0  0  0  0
    7.5045   -6.8934   16.9375 C   0  0  0  0  0  0  0  0  0  0  0  0
  1 21  4  0
  1 23  4  0
  2  5  1  0
  2 13  4  0
  2 16  4  0
  3  6  4  0
  3  7  4  0
  4 13  4  0
  4 19  4  0
  4 24  4  0
  6 23  4  0
  7 16  1  0
  7 21  4  0
  8 18  1  0
  9 20  4  0
  9 22  4  0
 10 17  1  0
 10 25  1  0
 11 16  4  0
 11 19  4  0
 12 15  4  0
 12 22  4  0
 14 24  4  0
 14 25  4  0
 15 17  4  0
 17 20  4  0
 18 23  1  0
 19 25  4  0
M  END
$$$$

 Created by Python create_sdf_string function

 25 28  0  0  0  0  0  0  0  0999 V2000
   13.0571   -5.2099   21.1545 C   0  0  0  0  0  0  0  0  0  0  0  0
   10.4355   -3.9746   17.6568 C   0  0  0  0  0  0  0  0  0  0  0  0
   10.4203   -4.2739   20.9686 C   0  0  0  0  0  0  0  0  0  0  0  0
    8.7703   -5.0992   16.4196 C   0  0  0  0  0  0  0  0  0  0  0  0
   11.3975   -2.8736   17.8285 C   0  0  0  0  0  0  0  0  0  0  0  0
   11.0388   -4.2594   22.1501 C   0  0  0  0  0  0  0  0  0  0  0  0
   11.1052   -4.8037   19.8657 C   0  0  0  0  0  0  0  0  0  0  0  0
   12.3674   -4.1342   24.4961 C   0  0  0  0  0  0  0  0  0  0  0  0
    3.5080   -9.0083   16.4924 C   0  0  0  0  0  0  0  0  0  0  0  0
    6.9063   -7.9253   17.5259 N   0  0  0  0  0  0  0  0  0  0  0  0
    9.4818   -5.9952   18.4953 C   0  0  0  0  0  0  0  0  0  0  0  0
    4.2327  -10.2468   18.2865 C   0  0  0  0  0  0  0  0  0  0  0  0
    9.6531   -4.1097   16.5023 N   0  0  0  0  0  0  0  0  0  0  0  0
    7.0997   -6.4303   15.7328 N   0  0  0  0  0  0  0  0  0  0  0  0
    5.4547   -9.5652   18.3052 C   0  0  0  0  0  0  0  0  0  0  0  0
   10.3556   -4.8994   18.6687 C   0  0  0  0  0  0  0  0  0  0  0  0
    5.6613   -8.6137   17.3629 C   0  0  0  0  0  0  0  0  0  0  0  0
   12.9387   -4.6288   23.4185 O   0  0  0  0  0  0  0  0  0  0  0  0
    8.6676   -6.0874   17.4295 C   0  0  0  0  0  0  0  0  0  0  0  0
    4.6988   -8.3705   16.4825 C   0  0  0  0  0  0  0  0  0  0  0  0
   12.4031   -5.2022   19.9528 C   0  0  0  0  0  0  0  0  0  0  0  0
    3.3061   -9.9195   17.4143 C   0  0  0  0  0  0  0  0  0  0  0  0
   12.3965   -4.7033   22.2218 C   0  0  0  0  0  0  0  0  0  0  0  0
    7.9203   -5.3379   15.3652 N   0  0  0  0  0  0  0  0  0  0  0  0
    7.4965   -6.8913   16.9563 C   0  0  0  0  0  0  0  0  0  0  0  0
  1 21  4  0
  1 23  4  0
  2  5  1  0
  2 13  4  0
  2 16  4  0
  3  6  4  0
  3  7  4  0
  4 13  4  0
  4 19  4  0
  4 24  4  0
  6 23  4  0
  7 16  1  0
  7 21  4  0
  8 18  1  0
  9 20  4  0
  9 22  4  0
 10 17  1  0
 10 25  1  0
 11 16  4  0
 11 19  4  0
 12 15  4  0
 12 22  4  0
 14 24  4  0
 14 25  4  0
 15 17  4  0
 17 20  4  0
 18 23  1  0
 19 25  4  0
M  END
$$$$

 Created by Python create_sdf_string function

 25 28  0  0  0  0  0  0  0  0999 V2000
   13.0762   -5.2119   21.1352 C   0  0  0  0  0  0  0  0  0  0  0  0
   10.4510   -3.9864   17.6456 C   0  0  0  0  0  0  0  0  0  0  0  0
   10.4262   -4.2944   20.9769 C   0  0  0  0  0  0  0  0  0  0  0  0
    8.7661   -5.1187   16.3970 C   0  0  0  0  0  0  0  0  0  0  0  0
   11.4023   -2.8791   17.8195 C   0  0  0  0  0  0  0  0  0  0  0  0
   11.0763   -4.2603   22.1649 C   0  0  0  0  0  0  0  0  0  0  0  0
   11.0930   -4.8049   19.8407 C   0  0  0  0  0  0  0  0  0  0  0  0
   12.3747   -4.1494   24.4805 C   0  0  0  0  0  0  0  0  0  0  0  0
    3.5161   -9.0050   16.4874 C   0  0  0  0  0  0  0  0  0  0  0  0
    6.9031   -7.9254   17.5215 N   0  0  0  0  0  0  0  0  0  0  0  0
    9.4660   -5.9928   18.5039 C   0  0  0  0  0  0  0  0  0  0  0  0
    4.2456  -10.2725   18.3170 C   0  0  0  0  0  0  0  0  0  0  0  0
    9.6495   -4.1165   16.5085 N   0  0  0  0  0  0  0  0  0  0  0  0
    7.1150   -6.4248   15.7492 N   0  0  0  0  0  0  0  0  0  0  0  0
    5.4002   -9.5990   18.3044 C   0  0  0  0  0  0  0  0  0  0  0  0
   10.3734   -4.9276   18.6728 C   0  0  0  0  0  0  0  0  0  0  0  0
    5.6446   -8.6225   17.3995 C   0  0  0  0  0  0  0  0  0  0  0  0
   12.9728   -4.6466   23.3983 O   0  0  0  0  0  0  0  0  0  0  0  0
    8.6389   -6.0708   17.4252 C   0  0  0  0  0  0  0  0  0  0  0  0
    4.6662   -8.3723   16.4723 C   0  0  0  0  0  0  0  0  0  0  0  0
   12.4238   -5.2227   19.9566 C   0  0  0  0  0  0  0  0  0  0  0  0
    3.2940   -9.9412   17.4193 C   0  0  0  0  0  0  0  0  0  0  0  0
   12.3884   -4.7099   22.2293 C   0  0  0  0  0  0  0  0  0  0  0  0
    7.8986   -5.3378   15.3724 N   0  0  0  0  0  0  0  0  0  0  0  0
    7.4887   -6.9011   16.9419 C   0  0  0  0  0  0  0  0  0  0  0  0
  1 21  4  0
  1 23  4  0
  2  5  1  0
  2 13  4  0
  2 16  4  0
  3  6  4  0
  3  7  4  0
  4 13  4  0
  4 19  4  0
  4 24  4  0
  6 23  4  0
  7 16  1  0
  7 21  4  0
  8 18  1  0
  9 20  4  0
  9 22  4  0
 10 17  1  0
 10 25  1  0
 11 16  4  0
 11 19  4  0
 12 15  4  0
 12 22  4  0
 14 24  4  0
 14 25  4  0
 15 17  4  0
 17 20  4  0
 18 23  1  0
 19 25  4  0
M  END
$$$$

 Created by Python create_sdf_string function

 25 29  0  0  0  0  0  0  0  0999 V2000
   13.1206   -5.1995   21.1494 C   0  0  0  0  0  0  0  0  0  0  0  0
   10.4436   -3.9872   17.6365 C   0  0  0  0  0  0  0  0  0  0  0  0
   10.4297   -4.3092   20.9654 C   0  0  0  0  0  0  0  0  0  0  0  0
    8.7610   -5.1312   16.3883 C   0  0  0  0  0  0  0  0  0  0  0  0
   11.4088   -2.8802   17.8402 C   0  0  0  0  0  0  0  0  0  0  0  0
   11.1142   -4.2302   22.1580 C   0  0  0  0  0  0  0  0  0  0  0  0
   11.1022   -4.8028   19.8377 C   0  0  0  0  0  0  0  0  0  0  0  0
   12.3738   -4.1554   24.4967 C   0  0  0  0  0  0  0  0  0  0  0  0
    3.5288   -9.0243   16.5116 C   0  0  0  0  0  0  0  0  0  0  0  0
    6.8902   -7.9167   17.5071 N   0  0  0  0  0  0  0  0  0  0  0  0
    9.4441   -6.0000   18.5011 C   0  0  0  0  0  0  0  0  0  0  0  0
    4.2381  -10.2661   18.3113 C   0  0  0  0  0  0  0  0  0  0  0  0
    9.6421   -4.1076   16.5212 N   0  0  0  0  0  0  0  0  0  0  0  0
    7.1229   -6.4453   15.7139 N   0  0  0  0  0  0  0  0  0  0  0  0
    5.3986   -9.5998   18.2813 C   0  0  0  0  0  0  0  0  0  0  0  0
   10.3802   -4.9287   18.6535 C   0  0  0  0  0  0  0  0  0  0  0  0
    5.6407   -8.6346   17.4013 C   0  0  0  0  0  0  0  0  0  0  0  0
   12.9851   -4.6396   23.3694 O   0  0  0  0  0  0  0  0  0  0  0  0
    8.6193   -6.0681   17.4202 C   0  0  0  0  0  0  0  0  0  0  0  0
    4.6425   -8.3748   16.4879 C   0  0  0  0  0  0  0  0  0  0  0  0
   12.4344   -5.2181   19.9397 C   0  0  0  0  0  0  0  0  0  0  0  0
    3.3005   -9.9470   17.4178 C   0  0  0  0  0  0  0  0  0  0  0  0
   12.4117   -4.6936   22.2338 C   0  0  0  0  0  0  0  0  0  0  0  0
    7.9074   -5.3414   15.3721 N   0  0  0  0  0  0  0  0  0  0  0  0
    7.4867   -6.8942   16.9389 C   0  0  0  0  0  0  0  0  0  0  0  0
  1 21  4  0
  1 23  4  0
  2  5  1  0
  2 13  4  0
  2 16  4  0
  3  6  4  0
  3  7  4  0
  4 13  4  0
  4 19  4  0
  4 24  4  0
  6 23  4  0
  7 13  4  0
  7 16  1  0
  7 21  4  0
  8 18  1  0
  9 20  4  0
  9 22  4  0
 10 17  1  0
 10 25  1  0
 11 16  4  0
 11 19  4  0
 12 15  4  0
 12 22  4  0
 14 24  4  0
 14 25  4  0
 15 17  4  0
 17 20  4  0
 18 23  1  0
 19 25  4  0
M  END
$$$$

 Created by Python create_sdf_string function

 25 28  0  0  0  0  0  0  0  0999 V2000
   13.1247   -5.2117   21.1092 C   0  0  0  0  0  0  0  0  0  0  0  0
   10.4572   -3.9965   17.6378 C   0  0  0  0  0  0  0  0  0  0  0  0
   10.4521   -4.3207   20.9724 C   0  0  0  0  0  0  0  0  0  0  0  0
    8.7541   -5.1256   16.3858 C   0  0  0  0  0  0  0  0  0  0  0  0
   11.4187   -2.8852   17.8316 C   0  0  0  0  0  0  0  0  0  0  0  0
   11.1124   -4.2492   22.1461 C   0  0  0  0  0  0  0  0  0  0  0  0
   11.1109   -4.8177   19.8237 C   0  0  0  0  0  0  0  0  0  0  0  0
   12.3950   -4.1726   24.4738 C   0  0  0  0  0  0  0  0  0  0  0  0
    3.5033   -9.0192   16.4961 C   0  0  0  0  0  0  0  0  0  0  0  0
    6.8772   -7.9221   17.5141 N   0  0  0  0  0  0  0  0  0  0  0  0
    9.4389   -5.9894   18.5051 C   0  0  0  0  0  0  0  0  0  0  0  0
    4.2386  -10.2908   18.3223 C   0  0  0  0  0  0  0  0  0  0  0  0
    9.6465   -4.1236   16.5066 N   0  0  0  0  0  0  0  0  0  0  0  0
    7.1027   -6.4548   15.7309 N   0  0  0  0  0  0  0  0  0  0  0  0
    5.3812   -9.6114   18.2922 C   0  0  0  0  0  0  0  0  0  0  0  0
   10.3726   -4.9421   18.6654 C   0  0  0  0  0  0  0  0  0  0  0  0
    5.6248   -8.6257   17.4003 C   0  0  0  0  0  0  0  0  0  0  0  0
   13.0145   -4.6462   23.3827 O   0  0  0  0  0  0  0  0  0  0  0  0
    8.6196   -6.0651   17.4082 C   0  0  0  0  0  0  0  0  0  0  0  0
    4.6458   -8.3695   16.4821 C   0  0  0  0  0  0  0  0  0  0  0  0
   12.4505   -5.2285   19.9390 C   0  0  0  0  0  0  0  0  0  0  0  0
    3.2811   -9.9654   17.4220 C   0  0  0  0  0  0  0  0  0  0  0  0
   12.4290   -4.7051   22.2116 C   0  0  0  0  0  0  0  0  0  0  0  0
    7.8890   -5.3544   15.3637 N   0  0  0  0  0  0  0  0  0  0  0  0
    7.4720   -6.9010   16.9254 C   0  0  0  0  0  0  0  0  0  0  0  0
  1 21  4  0
  1 23  4  0
  2  5  1  0
  2 13  4  0
  2 16  4  0
  3  6  4  0
  3  7  4  0
  4 13  4  0
  4 19  4  0
  4 24  4  0
  6 23  4  0
  7 16  1  0
  7 21  4  0
  8 18  1  0
  9 20  4  0
  9 22  4  0
 10 17  1  0
 10 25  1  0
 11 16  4  0
 11 19  4  0
 12 15  4  0
 12 22  4  0
 14 24  4  0
 14 25  4  0
 15 17  4  0
 17 20  4  0
 18 23  1  0
 19 25  4  0
M  END
$$$$

 Created by Python create_sdf_string function

 25 28  0  0  0  0  0  0  0  0999 V2000
   13.1417   -5.2233   21.1067 C   0  0  0  0  0  0  0  0  0  0  0  0
   10.4508   -4.0055   17.6422 C   0  0  0  0  0  0  0  0  0  0  0  0
   10.4444   -4.3152   20.9776 C   0  0  0  0  0  0  0  0  0  0  0  0
    8.7774   -5.1228   16.3859 C   0  0  0  0  0  0  0  0  0  0  0  0
   11.4133   -2.8853   17.8396 C   0  0  0  0  0  0  0  0  0  0  0  0
   11.1120   -4.2582   22.1588 C   0  0  0  0  0  0  0  0  0  0  0  0
   11.1257   -4.8135   19.8207 C   0  0  0  0  0  0  0  0  0  0  0  0
   12.4010   -4.1701   24.4715 C   0  0  0  0  0  0  0  0  0  0  0  0
    3.5104   -9.0249   16.4912 C   0  0  0  0  0  0  0  0  0  0  0  0
    6.8813   -7.9223   17.5029 N   0  0  0  0  0  0  0  0  0  0  0  0
    9.4327   -5.9883   18.5057 C   0  0  0  0  0  0  0  0  0  0  0  0
    4.2425  -10.2907   18.3131 C   0  0  0  0  0  0  0  0  0  0  0  0
    9.6408   -4.1297   16.5105 N   0  0  0  0  0  0  0  0  0  0  0  0
    7.1070   -6.4454   15.7241 N   0  0  0  0  0  0  0  0  0  0  0  0
    5.3738   -9.6217   18.3072 C   0  0  0  0  0  0  0  0  0  0  0  0
   10.3647   -4.9518   18.6686 C   0  0  0  0  0  0  0  0  0  0  0  0
    5.6228   -8.6287   17.4032 C   0  0  0  0  0  0  0  0  0  0  0  0
   13.0241   -4.6430   23.3850 O   0  0  0  0  0  0  0  0  0  0  0  0
    8.6208   -6.0616   17.4057 C   0  0  0  0  0  0  0  0  0  0  0  0
    4.6494   -8.3534   16.4720 C   0  0  0  0  0  0  0  0  0  0  0  0
   12.4662   -5.2240   19.9303 C   0  0  0  0  0  0  0  0  0  0  0  0
    3.2816   -9.9451   17.4145 C   0  0  0  0  0  0  0  0  0  0  0  0
   12.4164   -4.6907   22.2016 C   0  0  0  0  0  0  0  0  0  0  0  0
    7.8987   -5.3623   15.3613 N   0  0  0  0  0  0  0  0  0  0  0  0
    7.4728   -6.8905   16.9162 C   0  0  0  0  0  0  0  0  0  0  0  0
  1 21  4  0
  1 23  4  0
  2  5  1  0
  2 13  4  0
  2 16  4  0
  3  6  4  0
  3  7  4  0
  4 13  4  0
  4 19  4  0
  4 24  4  0
  6 23  4  0
  7 16  1  0
  7 21  4  0
  8 18  1  0
  9 20  4  0
  9 22  4  0
 10 17  1  0
 10 25  1  0
 11 16  4  0
 11 19  4  0
 12 15  4  0
 12 22  4  0
 14 24  4  0
 14 25  4  0
 15 17  4  0
 17 20  4  0
 18 23  1  0
 19 25  4  0
M  END
$$$$

 Created by Python create_sdf_string function

 25 28  0  0  0  0  0  0  0  0999 V2000
   13.1444   -5.2222   21.0921 C   0  0  0  0  0  0  0  0  0  0  0  0
   10.4604   -4.0116   17.6352 C   0  0  0  0  0  0  0  0  0  0  0  0
   10.4571   -4.3339   20.9708 C   0  0  0  0  0  0  0  0  0  0  0  0
    8.7549   -5.1315   16.3759 C   0  0  0  0  0  0  0  0  0  0  0  0
   11.4217   -2.8988   17.8356 C   0  0  0  0  0  0  0  0  0  0  0  0
   11.1258   -4.2729   22.1405 C   0  0  0  0  0  0  0  0  0  0  0  0
   11.1241   -4.8254   19.8188 C   0  0  0  0  0  0  0  0  0  0  0  0
   12.4100   -4.1821   24.4510 C   0  0  0  0  0  0  0  0  0  0  0  0
    3.5001   -9.0217   16.4918 C   0  0  0  0  0  0  0  0  0  0  0  0
    6.8611   -7.9235   17.5081 N   0  0  0  0  0  0  0  0  0  0  0  0
    9.4237   -5.9839   18.4986 C   0  0  0  0  0  0  0  0  0  0  0  0
    4.2301  -10.3055   18.3223 C   0  0  0  0  0  0  0  0  0  0  0  0
    9.6532   -4.1372   16.5040 N   0  0  0  0  0  0  0  0  0  0  0  0
    7.0909   -6.4523   15.7286 N   0  0  0  0  0  0  0  0  0  0  0  0
    5.3757   -9.6176   18.3049 C   0  0  0  0  0  0  0  0  0  0  0  0
   10.3693   -4.9549   18.6636 C   0  0  0  0  0  0  0  0  0  0  0  0
    5.6178   -8.6301   17.4079 C   0  0  0  0  0  0  0  0  0  0  0  0
   13.0345   -4.6497   23.3663 O   0  0  0  0  0  0  0  0  0  0  0  0
    8.6099   -6.0653   17.4005 C   0  0  0  0  0  0  0  0  0  0  0  0
    4.6493   -8.3661   16.4837 C   0  0  0  0  0  0  0  0  0  0  0  0
   12.4660   -5.2354   19.9213 C   0  0  0  0  0  0  0  0  0  0  0  0
    3.2751   -9.9649   17.4161 C   0  0  0  0  0  0  0  0  0  0  0  0
   12.4477   -4.7140   22.1958 C   0  0  0  0  0  0  0  0  0  0  0  0
    7.8859   -5.3658   15.3546 N   0  0  0  0  0  0  0  0  0  0  0  0
    7.4589   -6.8980   16.9156 C   0  0  0  0  0  0  0  0  0  0  0  0
  1 21  4  0
  1 23  4  0
  2  5  1  0
  2 13  4  0
  2 16  4  0
  3  6  4  0
  3  7  4  0
  4 13  4  0
  4 19  4  0
  4 24  4  0
  6 23  4  0
  7 16  1  0
  7 21  4  0
  8 18  1  0
  9 20  4  0
  9 22  4  0
 10 17  1  0
 10 25  1  0
 11 16  4  0
 11 19  4  0
 12 15  4  0
 12 22  4  0
 14 24  4  0
 14 25  4  0
 15 17  4  0
 17 20  4  0
 18 23  1  0
 19 25  4  0
M  END
$$$$

 Created by Python create_sdf_string function

 25 26  0  0  0  0  0  0  0  0999 V2000
   13.1561   -5.2272   21.0943 C   0  0  0  0  0  0  0  0  0  0  0  0
   10.4577   -4.0097   17.6314 C   0  0  0  0  0  0  0  0  0  0  0  0
   10.4551   -4.3233   20.9685 C   0  0  0  0  0  0  0  0  0  0  0  0
    8.7581   -5.1385   16.3809 C   0  0  0  0  0  0  0  0  0  0  0  0
   11.4227   -2.8914   17.8328 C   0  0  0  0  0  0  0  0  0  0  0  0
   11.1325   -4.2722   22.1361 C   0  0  0  0  0  0  0  0  0  0  0  0
   11.1323   -4.8344   19.8203 C   0  0  0  0  0  0  0  0  0  0  0  0
   12.4051   -4.1938   24.4544 C   0  0  0  0  0  0  0  0  0  0  0  0
    3.4971   -9.0214   16.4911 C   0  0  0  0  0  0  0  0  0  0  0  0
    9.4223   -5.9728   18.5005 C   0  0  0  0  0  0  0  0  0  0  0  0
    4.2385  -10.3029   18.3396 C   0  0  0  0  0  0  0  0  0  0  0  0
    9.6590   -4.1353   16.4907 N   0  0  0  0  0  0  0  0  0  0  0  0
    7.0930   -6.4477   15.7284 N   0  0  0  0  0  0  0  0  0  0  0  0
    5.3773   -9.6160   18.3075 C   0  0  0  0  0  0  0  0  0  0  0  0
   10.3819   -4.9505   18.6670 C   0  0  0  0  0  0  0  0  0  0  0  0
    5.6195   -8.6211   17.4085 C   0  0  0  0  0  0  0  0  0  0  0  0
   13.0323   -4.6441   23.3702 O   0  0  0  0  0  0  0  0  0  0  0  0
    8.6199   -6.0745   17.4060 C   0  0  0  0  0  0  0  0  0  0  0  0
    4.6511   -8.3727   16.4947 C   0  0  0  0  0  0  0  0  0  0  0  0
   12.4576   -5.2393   19.9281 C   0  0  0  0  0  0  0  0  0  0  0  0
    3.2716   -9.9585   17.4123 C   0  0  0  0  0  0  0  0  0  0  0  0
   12.4432   -4.7142   22.1991 C   0  0  0  0  0  0  0  0  0  0  0  0
    7.8797   -5.3670   15.3669 N   0  0  0  0  0  0  0  0  0  0  0  0
    7.4593   -6.9073   16.9164 C   0  0  0  0  0  0  0  0  0  0  0  0
    6.8610   -7.9353   17.5172 He  0  0  0  0  0  0  0  0  0  0  0  0
  1 20  4  0
  1 22  4  0
  2  5  1  0
  2 12  4  0
  2 15  4  0
  3  6  4  0
  3  7  4  0
  4 12  4  0
  4 18  4  0
  4 23  4  0
  6 22  4  0
  7 15  1  0
  7 20  4  0
  8 17  1  0
  9 19  4  0
  9 21  4  0
 10 15  4  0
 10 18  4  0
 11 14  4  0
 11 21  4  0
 13 23  4  0
 13 24  4  0
 14 16  4  0
 16 19  4  0
 17 22  1  0
 18 24  4  0
M  END
$$$$

 Created by Python create_sdf_string function

 25 28  0  0  0  0  0  0  0  0999 V2000
   13.1535   -5.2317   21.0789 C   0  0  0  0  0  0  0  0  0  0  0  0
   10.4707   -4.0160   17.6243 C   0  0  0  0  0  0  0  0  0  0  0  0
   10.4691   -4.3428   20.9669 C   0  0  0  0  0  0  0  0  0  0  0  0
    8.7500   -5.1389   16.3731 C   0  0  0  0  0  0  0  0  0  0  0  0
   11.4307   -2.9042   17.8237 C   0  0  0  0  0  0  0  0  0  0  0  0
   11.1424   -4.2855   22.1315 C   0  0  0  0  0  0  0  0  0  0  0  0
   11.1272   -4.8384   19.8151 C   0  0  0  0  0  0  0  0  0  0  0  0
   12.4187   -4.2064   24.4351 C   0  0  0  0  0  0  0  0  0  0  0  0
    3.4875   -9.0316   16.5007 C   0  0  0  0  0  0  0  0  0  0  0  0
    6.8609   -7.9284   17.5262 N   0  0  0  0  0  0  0  0  0  0  0  0
    9.4185   -5.9814   18.4970 C   0  0  0  0  0  0  0  0  0  0  0  0
    4.2173  -10.3109   18.3301 C   0  0  0  0  0  0  0  0  0  0  0  0
    9.6605   -4.1470   16.4881 N   0  0  0  0  0  0  0  0  0  0  0  0
    7.0766   -6.4608   15.7320 N   0  0  0  0  0  0  0  0  0  0  0  0
    5.3698   -9.6216   18.3149 C   0  0  0  0  0  0  0  0  0  0  0  0
   10.3749   -4.9569   18.6583 C   0  0  0  0  0  0  0  0  0  0  0  0
    5.6059   -8.6361   17.4164 C   0  0  0  0  0  0  0  0  0  0  0  0
   13.0545   -4.6584   23.3502 O   0  0  0  0  0  0  0  0  0  0  0  0
    8.6057   -6.0691   17.4048 C   0  0  0  0  0  0  0  0  0  0  0  0
    4.6388   -8.3740   16.4919 C   0  0  0  0  0  0  0  0  0  0  0  0
   12.4647   -5.2502   19.9162 C   0  0  0  0  0  0  0  0  0  0  0  0
    3.2630   -9.9784   17.4204 C   0  0  0  0  0  0  0  0  0  0  0  0
   12.4641   -4.7284   22.1847 C   0  0  0  0  0  0  0  0  0  0  0  0
    7.8756   -5.3690   15.3625 N   0  0  0  0  0  0  0  0  0  0  0  0
    7.4614   -6.8995   16.9308 C   0  0  0  0  0  0  0  0  0  0  0  0
  1 21  4  0
  1 23  4  0
  2  5  1  0
  2 13  4  0
  2 16  4  0
  3  6  4  0
  3  7  4  0
  4 13  4  0
  4 19  4  0
  4 24  4  0
  6 23  4  0
  7 16  1  0
  7 21  4  0
  8 18  1  0
  9 20  4  0
  9 22  4  0
 10 17  1  0
 10 25  1  0
 11 16  4  0
 11 19  4  0
 12 15  4  0
 12 22  4  0
 14 24  4  0
 14 25  4  0
 15 17  4  0
 17 20  4  0
 18 23  1  0
 19 25  4  0
M  END
$$$$

 Created by Python create_sdf_string function

 25 29  0  0  0  0  0  0  0  0999 V2000
   13.1533   -5.2358   21.0800 C   0  0  0  0  0  0  0  0  0  0  0  0
   10.4715   -4.0156   17.6234 C   0  0  0  0  0  0  0  0  0  0  0  0
   10.4655   -4.3428   20.9635 C   0  0  0  0  0  0  0  0  0  0  0  0
    8.7511   -5.1378   16.3712 C   0  0  0  0  0  0  0  0  0  0  0  0
   11.4294   -2.9051   17.8199 C   0  0  0  0  0  0  0  0  0  0  0  0
   11.1429   -4.2900   22.1345 C   0  0  0  0  0  0  0  0  0  0  0  0
   11.1227   -4.8394   19.8146 C   0  0  0  0  0  0  0  0  0  0  0  0
   12.4242   -4.2064   24.4340 C   0  0  0  0  0  0  0  0  0  0  0  0
    3.4867   -9.0310   16.4990 C   0  0  0  0  0  0  0  0  0  0  0  0
    6.8536   -7.9324   17.5272 N   0  0  0  0  0  0  0  0  0  0  0  0
    9.4200   -5.9802   18.4933 C   0  0  0  0  0  0  0  0  0  0  0  0
    4.2150  -10.3104   18.3255 C   0  0  0  0  0  0  0  0  0  0  0  0
    9.6580   -4.1504   16.4908 N   0  0  0  0  0  0  0  0  0  0  0  0
    7.0733   -6.4641   15.7337 N   0  0  0  0  0  0  0  0  0  0  0  0
    5.3690   -9.6217   18.3146 C   0  0  0  0  0  0  0  0  0  0  0  0
   10.3782   -4.9530   18.6561 C   0  0  0  0  0  0  0  0  0  0  0  0
    5.6040   -8.6389   17.4157 C   0  0  0  0  0  0  0  0  0  0  0  0
   13.0514   -4.6510   23.3533 O   0  0  0  0  0  0  0  0  0  0  0  0
    8.6075   -6.0683   17.4027 C   0  0  0  0  0  0  0  0  0  0  0  0
    4.6322   -8.3709   16.4971 C   0  0  0  0  0  0  0  0  0  0  0  0
   12.4641   -5.2545   19.9170 C   0  0  0  0  0  0  0  0  0  0  0  0
    3.2635   -9.9819   17.4164 C   0  0  0  0  0  0  0  0  0  0  0  0
   12.4656   -4.7306   22.1865 C   0  0  0  0  0  0  0  0  0  0  0  0
    7.8757   -5.3657   15.3638 N   0  0  0  0  0  0  0  0  0  0  0  0
    7.4571   -6.8981   16.9344 C   0  0  0  0  0  0  0  0  0  0  0  0
  1  5  1  0
  1 21  4  0
  1 23  4  0
  2  5  1  0
  2 13  4  0
  2 16  4  0
  3  6  4  0
  3  7  4  0
  4 13  4  0
  4 19  4  0
  4 24  4  0
  6 23  4  0
  7 16  1  0
  7 21  4  0
  8 18  1  0
  9 20  4  0
  9 22  4  0
 10 17  1  0
 10 25  1  0
 11 16  4  0
 11 19  4  0
 12 15  4  0
 12 22  4  0
 14 24  4  0
 14 25  4  0
 15 17  4  0
 17 20  4  0
 18 23  1  0
 19 25  4  0
M  END
$$$$

 Created by Python create_sdf_string function

 25 28  0  0  0  0  0  0  0  0999 V2000
   13.1533   -5.2399   21.0682 C   0  0  0  0  0  0  0  0  0  0  0  0
   10.4729   -4.0295   17.6135 C   0  0  0  0  0  0  0  0  0  0  0  0
   10.4789   -4.3641   20.9564 C   0  0  0  0  0  0  0  0  0  0  0  0
    8.7421   -5.1412   16.3650 C   0  0  0  0  0  0  0  0  0  0  0  0
   11.4353   -2.9204   17.8044 C   0  0  0  0  0  0  0  0  0  0  0  0
   11.1529   -4.3028   22.1277 C   0  0  0  0  0  0  0  0  0  0  0  0
   11.1290   -4.8502   19.8052 C   0  0  0  0  0  0  0  0  0  0  0  0
   12.4329   -4.2159   24.4224 C   0  0  0  0  0  0  0  0  0  0  0  0
    3.4740   -9.0387   16.5022 C   0  0  0  0  0  0  0  0  0  0  0  0
    6.8384   -7.9290   17.5282 N   0  0  0  0  0  0  0  0  0  0  0  0
    9.4126   -5.9853   18.4899 C   0  0  0  0  0  0  0  0  0  0  0  0
    4.2064  -10.3242   18.3302 C   0  0  0  0  0  0  0  0  0  0  0  0
    9.6599   -4.1551   16.4796 N   0  0  0  0  0  0  0  0  0  0  0  0
    7.0644   -6.4612   15.7375 N   0  0  0  0  0  0  0  0  0  0  0  0
    5.3549   -9.6322   18.3190 C   0  0  0  0  0  0  0  0  0  0  0  0
   10.3704   -4.9638   18.6510 C   0  0  0  0  0  0  0  0  0  0  0  0
    5.5935   -8.6419   17.4234 C   0  0  0  0  0  0  0  0  0  0  0  0
   13.0726   -4.6648   23.3394 O   0  0  0  0  0  0  0  0  0  0  0  0
    8.5955   -6.0705   17.3996 C   0  0  0  0  0  0  0  0  0  0  0  0
    4.6223   -8.3832   16.5030 C   0  0  0  0  0  0  0  0  0  0  0  0
   12.4690   -5.2624   19.9024 C   0  0  0  0  0  0  0  0  0  0  0  0
    3.2548   -9.9919   17.4189 C   0  0  0  0  0  0  0  0  0  0  0  0
   12.4767   -4.7393   22.1790 C   0  0  0  0  0  0  0  0  0  0  0  0
    7.8593   -5.3772   15.3569 N   0  0  0  0  0  0  0  0  0  0  0  0
    7.4412   -6.9038   16.9283 C   0  0  0  0  0  0  0  0  0  0  0  0
  1 21  4  0
  1 23  4  0
  2  5  1  0
  2 13  4  0
  2 16  4  0
  3  6  4  0
  3  7  4  0
  4 13  4  0
  4 19  4  0
  4 24  4  0
  6 23  4  0
  7 16  1  0
  7 21  4  0
  8 18  1  0
  9 20  4  0
  9 22  4  0
 10 17  1  0
 10 25  1  0
 11 16  4  0
 11 19  4  0
 12 15  4  0
 12 22  4  0
 14 24  4  0
 14 25  4  0
 15 17  4  0
 17 20  4  0
 18 23  1  0
 19 25  4  0
M  END
$$$$

 Created by Python create_sdf_string function

 25 28  0  0  0  0  0  0  0  0999 V2000
   13.1533   -5.2399   21.0682 C   0  0  0  0  0  0  0  0  0  0  0  0
   10.4729   -4.0295   17.6135 C   0  0  0  0  0  0  0  0  0  0  0  0
   10.4789   -4.3641   20.9564 C   0  0  0  0  0  0  0  0  0  0  0  0
    8.7421   -5.1412   16.3650 C   0  0  0  0  0  0  0  0  0  0  0  0
   11.4353   -2.9204   17.8044 C   0  0  0  0  0  0  0  0  0  0  0  0
   11.1529   -4.3028   22.1277 C   0  0  0  0  0  0  0  0  0  0  0  0
   11.1290   -4.8502   19.8052 C   0  0  0  0  0  0  0  0  0  0  0  0
   12.4329   -4.2159   24.4224 C   0  0  0  0  0  0  0  0  0  0  0  0
    3.4740   -9.0387   16.5022 C   0  0  0  0  0  0  0  0  0  0  0  0
    6.8384   -7.9290   17.5282 N   0  0  0  0  0  0  0  0  0  0  0  0
    9.4126   -5.9853   18.4899 C   0  0  0  0  0  0  0  0  0  0  0  0
    4.2064  -10.3242   18.3302 C   0  0  0  0  0  0  0  0  0  0  0  0
    9.6599   -4.1551   16.4796 N   0  0  0  0  0  0  0  0  0  0  0  0
    7.0644   -6.4612   15.7375 N   0  0  0  0  0  0  0  0  0  0  0  0
    5.3549   -9.6322   18.3190 C   0  0  0  0  0  0  0  0  0  0  0  0
   10.3704   -4.9638   18.6510 C   0  0  0  0  0  0  0  0  0  0  0  0
    5.5935   -8.6419   17.4234 C   0  0  0  0  0  0  0  0  0  0  0  0
   13.0726   -4.6648   23.3394 O   0  0  0  0  0  0  0  0  0  0  0  0
    8.5955   -6.0705   17.3996 C   0  0  0  0  0  0  0  0  0  0  0  0
    4.6223   -8.3832   16.5030 C   0  0  0  0  0  0  0  0  0  0  0  0
   12.4690   -5.2624   19.9024 C   0  0  0  0  0  0  0  0  0  0  0  0
    3.2548   -9.9919   17.4189 C   0  0  0  0  0  0  0  0  0  0  0  0
   12.4767   -4.7393   22.1790 C   0  0  0  0  0  0  0  0  0  0  0  0
    7.8593   -5.3772   15.3569 N   0  0  0  0  0  0  0  0  0  0  0  0
    7.4412   -6.9038   16.9283 C   0  0  0  0  0  0  0  0  0  0  0  0
  1 21  4  0
  1 23  4  0
  2  5  1  0
  2 13  4  0
  2 16  4  0
  3  6  4  0
  3  7  4  0
  4 13  4  0
  4 19  4  0
  4 24  4  0
  6 23  4  0
  7 16  1  0
  7 21  4  0
  8 18  1  0
  9 20  4  0
  9 22  4  0
 10 17  1  0
 10 25  1  0
 11 16  4  0
 11 19  4  0
 12 15  4  0
 12 22  4  0
 14 24  4  0
 14 25  4  0
 15 17  4  0
 17 20  4  0
 18 23  1  0
 19 25  4  0
M  END
$$$$

 Created by Python create_sdf_string function

 25 28  0  0  0  0  0  0  0  0999 V2000
   13.1533   -5.2399   21.0682 C   0  0  0  0  0  0  0  0  0  0  0  0
   10.4729   -4.0295   17.6135 C   0  0  0  0  0  0  0  0  0  0  0  0
   10.4789   -4.3641   20.9564 C   0  0  0  0  0  0  0  0  0  0  0  0
    8.7421   -5.1412   16.3650 C   0  0  0  0  0  0  0  0  0  0  0  0
   11.4353   -2.9204   17.8044 C   0  0  0  0  0  0  0  0  0  0  0  0
   11.1529   -4.3028   22.1277 C   0  0  0  0  0  0  0  0  0  0  0  0
   11.1290   -4.8502   19.8052 C   0  0  0  0  0  0  0  0  0  0  0  0
   12.4329   -4.2159   24.4224 C   0  0  0  0  0  0  0  0  0  0  0  0
    3.4740   -9.0387   16.5022 C   0  0  0  0  0  0  0  0  0  0  0  0
    6.8384   -7.9290   17.5282 N   0  0  0  0  0  0  0  0  0  0  0  0
    9.4126   -5.9853   18.4899 C   0  0  0  0  0  0  0  0  0  0  0  0
    4.2064  -10.3242   18.3302 C   0  0  0  0  0  0  0  0  0  0  0  0
    9.6599   -4.1551   16.4796 N   0  0  0  0  0  0  0  0  0  0  0  0
    7.0644   -6.4612   15.7375 N   0  0  0  0  0  0  0  0  0  0  0  0
    5.3549   -9.6322   18.3190 C   0  0  0  0  0  0  0  0  0  0  0  0
   10.3704   -4.9638   18.6510 C   0  0  0  0  0  0  0  0  0  0  0  0
    5.5935   -8.6419   17.4234 C   0  0  0  0  0  0  0  0  0  0  0  0
   13.0726   -4.6648   23.3394 O   0  0  0  0  0  0  0  0  0  0  0  0
    8.5955   -6.0705   17.3996 C   0  0  0  0  0  0  0  0  0  0  0  0
    4.6223   -8.3832   16.5030 C   0  0  0  0  0  0  0  0  0  0  0  0
   12.4690   -5.2624   19.9024 C   0  0  0  0  0  0  0  0  0  0  0  0
    3.2548   -9.9919   17.4189 C   0  0  0  0  0  0  0  0  0  0  0  0
   12.4767   -4.7393   22.1790 C   0  0  0  0  0  0  0  0  0  0  0  0
    7.8593   -5.3772   15.3569 N   0  0  0  0  0  0  0  0  0  0  0  0
    7.4412   -6.9038   16.9283 C   0  0  0  0  0  0  0  0  0  0  0  0
  1 21  4  0
  1 23  4  0
  2  5  1  0
  2 13  4  0
  2 16  4  0
  3  6  4  0
  3  7  4  0
  4 13  4  0
  4 19  4  0
  4 24  4  0
  6 23  4  0
  7 16  1  0
  7 21  4  0
  8 18  1  0
  9 20  4  0
  9 22  4  0
 10 17  1  0
 10 25  1  0
 11 16  4  0
 11 19  4  0
 12 15  4  0
 12 22  4  0
 14 24  4  0
 14 25  4  0
 15 17  4  0
 17 20  4  0
 18 23  1  0
 19 25  4  0
M  END
$$$$

 Created by Python create_sdf_string function

 25 28  0  0  0  0  0  0  0  0999 V2000
   13.1533   -5.2399   21.0682 C   0  0  0  0  0  0  0  0  0  0  0  0
   10.4729   -4.0295   17.6135 C   0  0  0  0  0  0  0  0  0  0  0  0
   10.4789   -4.3641   20.9564 C   0  0  0  0  0  0  0  0  0  0  0  0
    8.7421   -5.1412   16.3650 C   0  0  0  0  0  0  0  0  0  0  0  0
   11.4353   -2.9204   17.8044 C   0  0  0  0  0  0  0  0  0  0  0  0
   11.1529   -4.3028   22.1277 C   0  0  0  0  0  0  0  0  0  0  0  0
   11.1290   -4.8502   19.8052 C   0  0  0  0  0  0  0  0  0  0  0  0
   12.4329   -4.2159   24.4224 C   0  0  0  0  0  0  0  0  0  0  0  0
    3.4740   -9.0387   16.5022 C   0  0  0  0  0  0  0  0  0  0  0  0
    6.8384   -7.9290   17.5282 N   0  0  0  0  0  0  0  0  0  0  0  0
    9.4126   -5.9853   18.4899 C   0  0  0  0  0  0  0  0  0  0  0  0
    4.2064  -10.3242   18.3302 C   0  0  0  0  0  0  0  0  0  0  0  0
    9.6599   -4.1551   16.4796 N   0  0  0  0  0  0  0  0  0  0  0  0
    7.0644   -6.4612   15.7375 N   0  0  0  0  0  0  0  0  0  0  0  0
    5.3549   -9.6322   18.3190 C   0  0  0  0  0  0  0  0  0  0  0  0
   10.3704   -4.9638   18.6510 C   0  0  0  0  0  0  0  0  0  0  0  0
    5.5935   -8.6419   17.4234 C   0  0  0  0  0  0  0  0  0  0  0  0
   13.0726   -4.6648   23.3394 O   0  0  0  0  0  0  0  0  0  0  0  0
    8.5955   -6.0705   17.3996 C   0  0  0  0  0  0  0  0  0  0  0  0
    4.6223   -8.3832   16.5030 C   0  0  0  0  0  0  0  0  0  0  0  0
   12.4690   -5.2624   19.9024 C   0  0  0  0  0  0  0  0  0  0  0  0
    3.2548   -9.9919   17.4189 C   0  0  0  0  0  0  0  0  0  0  0  0
   12.4767   -4.7393   22.1790 C   0  0  0  0  0  0  0  0  0  0  0  0
    7.8593   -5.3772   15.3569 N   0  0  0  0  0  0  0  0  0  0  0  0
    7.4412   -6.9038   16.9283 C   0  0  0  0  0  0  0  0  0  0  0  0
  1 21  4  0
  1 23  4  0
  2  5  1  0
  2 13  4  0
  2 16  4  0
  3  6  4  0
  3  7  4  0
  4 13  4  0
  4 19  4  0
  4 24  4  0
  6 23  4  0
  7 16  1  0
  7 21  4  0
  8 18  1  0
  9 20  4  0
  9 22  4  0
 10 17  1  0
 10 25  1  0
 11 16  4  0
 11 19  4  0
 12 15  4  0
 12 22  4  0
 14 24  4  0
 14 25  4  0
 15 17  4  0
 17 20  4  0
 18 23  1  0
 19 25  4  0
M  END
$$$$

 Created by Python create_sdf_string function

 25 28  0  0  0  0  0  0  0  0999 V2000
   13.1533   -5.2399   21.0682 C   0  0  0  0  0  0  0  0  0  0  0  0
   10.4729   -4.0295   17.6135 C   0  0  0  0  0  0  0  0  0  0  0  0
   10.4789   -4.3641   20.9564 C   0  0  0  0  0  0  0  0  0  0  0  0
    8.7421   -5.1412   16.3650 C   0  0  0  0  0  0  0  0  0  0  0  0
   11.4353   -2.9204   17.8044 C   0  0  0  0  0  0  0  0  0  0  0  0
   11.1529   -4.3028   22.1277 C   0  0  0  0  0  0  0  0  0  0  0  0
   11.1290   -4.8502   19.8052 C   0  0  0  0  0  0  0  0  0  0  0  0
   12.4329   -4.2159   24.4224 C   0  0  0  0  0  0  0  0  0  0  0  0
    3.4740   -9.0387   16.5022 C   0  0  0  0  0  0  0  0  0  0  0  0
    6.8384   -7.9290   17.5282 N   0  0  0  0  0  0  0  0  0  0  0  0
    9.4126   -5.9853   18.4899 C   0  0  0  0  0  0  0  0  0  0  0  0
    4.2064  -10.3242   18.3302 C   0  0  0  0  0  0  0  0  0  0  0  0
    9.6599   -4.1551   16.4796 N   0  0  0  0  0  0  0  0  0  0  0  0
    7.0644   -6.4612   15.7375 N   0  0  0  0  0  0  0  0  0  0  0  0
    5.3549   -9.6322   18.3190 C   0  0  0  0  0  0  0  0  0  0  0  0
   10.3704   -4.9638   18.6510 C   0  0  0  0  0  0  0  0  0  0  0  0
    5.5935   -8.6419   17.4234 C   0  0  0  0  0  0  0  0  0  0  0  0
   13.0726   -4.6648   23.3394 O   0  0  0  0  0  0  0  0  0  0  0  0
    8.5955   -6.0705   17.3996 C   0  0  0  0  0  0  0  0  0  0  0  0
    4.6223   -8.3832   16.5030 C   0  0  0  0  0  0  0  0  0  0  0  0
   12.4690   -5.2624   19.9024 C   0  0  0  0  0  0  0  0  0  0  0  0
    3.2548   -9.9919   17.4189 C   0  0  0  0  0  0  0  0  0  0  0  0
   12.4767   -4.7393   22.1790 C   0  0  0  0  0  0  0  0  0  0  0  0
    7.8593   -5.3772   15.3569 N   0  0  0  0  0  0  0  0  0  0  0  0
    7.4412   -6.9038   16.9283 C   0  0  0  0  0  0  0  0  0  0  0  0
  1 21  4  0
  1 23  4  0
  2  5  1  0
  2 13  4  0
  2 16  4  0
  3  6  4  0
  3  7  4  0
  4 13  4  0
  4 19  4  0
  4 24  4  0
  6 23  4  0
  7 16  1  0
  7 21  4  0
  8 18  1  0
  9 20  4  0
  9 22  4  0
 10 17  1  0
 10 25  1  0
 11 16  4  0
 11 19  4  0
 12 15  4  0
 12 22  4  0
 14 24  4  0
 14 25  4  0
 15 17  4  0
 17 20  4  0
 18 23  1  0
 19 25  4  0
M  END
$$$$

 Created by Python create_sdf_string function

 25 28  0  0  0  0  0  0  0  0999 V2000
   13.1533   -5.2399   21.0682 C   0  0  0  0  0  0  0  0  0  0  0  0
   10.4729   -4.0295   17.6135 C   0  0  0  0  0  0  0  0  0  0  0  0
   10.4789   -4.3641   20.9564 C   0  0  0  0  0  0  0  0  0  0  0  0
    8.7421   -5.1412   16.3650 C   0  0  0  0  0  0  0  0  0  0  0  0
   11.4353   -2.9204   17.8044 C   0  0  0  0  0  0  0  0  0  0  0  0
   11.1529   -4.3028   22.1277 C   0  0  0  0  0  0  0  0  0  0  0  0
   11.1290   -4.8502   19.8052 C   0  0  0  0  0  0  0  0  0  0  0  0
   12.4329   -4.2159   24.4224 C   0  0  0  0  0  0  0  0  0  0  0  0
    3.4740   -9.0387   16.5022 C   0  0  0  0  0  0  0  0  0  0  0  0
    6.8384   -7.9290   17.5282 N   0  0  0  0  0  0  0  0  0  0  0  0
    9.4126   -5.9853   18.4899 C   0  0  0  0  0  0  0  0  0  0  0  0
    4.2064  -10.3242   18.3302 C   0  0  0  0  0  0  0  0  0  0  0  0
    9.6599   -4.1551   16.4796 N   0  0  0  0  0  0  0  0  0  0  0  0
    7.0644   -6.4612   15.7375 N   0  0  0  0  0  0  0  0  0  0  0  0
    5.3549   -9.6322   18.3190 C   0  0  0  0  0  0  0  0  0  0  0  0
   10.3704   -4.9638   18.6510 C   0  0  0  0  0  0  0  0  0  0  0  0
    5.5935   -8.6419   17.4234 C   0  0  0  0  0  0  0  0  0  0  0  0
   13.0726   -4.6648   23.3394 O   0  0  0  0  0  0  0  0  0  0  0  0
    8.5955   -6.0705   17.3996 C   0  0  0  0  0  0  0  0  0  0  0  0
    4.6223   -8.3832   16.5030 C   0  0  0  0  0  0  0  0  0  0  0  0
   12.4690   -5.2624   19.9024 C   0  0  0  0  0  0  0  0  0  0  0  0
    3.2548   -9.9919   17.4189 C   0  0  0  0  0  0  0  0  0  0  0  0
   12.4767   -4.7393   22.1790 C   0  0  0  0  0  0  0  0  0  0  0  0
    7.8593   -5.3772   15.3569 N   0  0  0  0  0  0  0  0  0  0  0  0
    7.4412   -6.9038   16.9283 C   0  0  0  0  0  0  0  0  0  0  0  0
  1 21  4  0
  1 23  4  0
  2  5  1  0
  2 13  4  0
  2 16  4  0
  3  6  4  0
  3  7  4  0
  4 13  4  0
  4 19  4  0
  4 24  4  0
  6 23  4  0
  7 16  1  0
  7 21  4  0
  8 18  1  0
  9 20  4  0
  9 22  4  0
 10 17  1  0
 10 25  1  0
 11 16  4  0
 11 19  4  0
 12 15  4  0
 12 22  4  0
 14 24  4  0
 14 25  4  0
 15 17  4  0
 17 20  4  0
 18 23  1  0
 19 25  4  0
M  END
$$$$

 Created by Python create_sdf_string function

 25 28  0  0  0  0  0  0  0  0999 V2000
   13.1533   -5.2399   21.0682 C   0  0  0  0  0  0  0  0  0  0  0  0
   10.4729   -4.0295   17.6135 C   0  0  0  0  0  0  0  0  0  0  0  0
   10.4789   -4.3641   20.9564 C   0  0  0  0  0  0  0  0  0  0  0  0
    8.7421   -5.1412   16.3650 C   0  0  0  0  0  0  0  0  0  0  0  0
   11.4353   -2.9204   17.8044 C   0  0  0  0  0  0  0  0  0  0  0  0
   11.1529   -4.3028   22.1277 C   0  0  0  0  0  0  0  0  0  0  0  0
   11.1290   -4.8502   19.8052 C   0  0  0  0  0  0  0  0  0  0  0  0
   12.4329   -4.2159   24.4224 C   0  0  0  0  0  0  0  0  0  0  0  0
    3.4740   -9.0387   16.5022 C   0  0  0  0  0  0  0  0  0  0  0  0
    6.8384   -7.9290   17.5282 N   0  0  0  0  0  0  0  0  0  0  0  0
    9.4126   -5.9853   18.4899 C   0  0  0  0  0  0  0  0  0  0  0  0
    4.2064  -10.3242   18.3302 C   0  0  0  0  0  0  0  0  0  0  0  0
    9.6599   -4.1551   16.4796 N   0  0  0  0  0  0  0  0  0  0  0  0
    7.0644   -6.4612   15.7375 N   0  0  0  0  0  0  0  0  0  0  0  0
    5.3549   -9.6322   18.3190 C   0  0  0  0  0  0  0  0  0  0  0  0
   10.3704   -4.9638   18.6510 C   0  0  0  0  0  0  0  0  0  0  0  0
    5.5935   -8.6419   17.4234 C   0  0  0  0  0  0  0  0  0  0  0  0
   13.0726   -4.6648   23.3394 O   0  0  0  0  0  0  0  0  0  0  0  0
    8.5955   -6.0705   17.3996 C   0  0  0  0  0  0  0  0  0  0  0  0
    4.6223   -8.3832   16.5030 C   0  0  0  0  0  0  0  0  0  0  0  0
   12.4690   -5.2624   19.9024 C   0  0  0  0  0  0  0  0  0  0  0  0
    3.2548   -9.9919   17.4189 C   0  0  0  0  0  0  0  0  0  0  0  0
   12.4767   -4.7393   22.1790 C   0  0  0  0  0  0  0  0  0  0  0  0
    7.8593   -5.3772   15.3569 N   0  0  0  0  0  0  0  0  0  0  0  0
    7.4412   -6.9038   16.9283 C   0  0  0  0  0  0  0  0  0  0  0  0
  1 21  4  0
  1 23  4  0
  2  5  1  0
  2 13  4  0
  2 16  4  0
  3  6  4  0
  3  7  4  0
  4 13  4  0
  4 19  4  0
  4 24  4  0
  6 23  4  0
  7 16  1  0
  7 21  4  0
  8 18  1  0
  9 20  4  0
  9 22  4  0
 10 17  1  0
 10 25  1  0
 11 16  4  0
 11 19  4  0
 12 15  4  0
 12 22  4  0
 14 24  4  0
 14 25  4  0
 15 17  4  0
 17 20  4  0
 18 23  1  0
 19 25  4  0
M  END
$$$$

 Created by Python create_sdf_string function

 25 28  0  0  0  0  0  0  0  0999 V2000
   13.1533   -5.2399   21.0682 C   0  0  0  0  0  0  0  0  0  0  0  0
   10.4729   -4.0295   17.6135 C   0  0  0  0  0  0  0  0  0  0  0  0
   10.4789   -4.3641   20.9564 C   0  0  0  0  0  0  0  0  0  0  0  0
    8.7421   -5.1412   16.3650 C   0  0  0  0  0  0  0  0  0  0  0  0
   11.4353   -2.9204   17.8044 C   0  0  0  0  0  0  0  0  0  0  0  0
   11.1529   -4.3028   22.1277 C   0  0  0  0  0  0  0  0  0  0  0  0
   11.1290   -4.8502   19.8052 C   0  0  0  0  0  0  0  0  0  0  0  0
   12.4329   -4.2159   24.4224 C   0  0  0  0  0  0  0  0  0  0  0  0
    3.4740   -9.0387   16.5022 C   0  0  0  0  0  0  0  0  0  0  0  0
    6.8384   -7.9290   17.5282 N   0  0  0  0  0  0  0  0  0  0  0  0
    9.4126   -5.9853   18.4899 C   0  0  0  0  0  0  0  0  0  0  0  0
    4.2064  -10.3242   18.3302 C   0  0  0  0  0  0  0  0  0  0  0  0
    9.6599   -4.1551   16.4796 N   0  0  0  0  0  0  0  0  0  0  0  0
    7.0644   -6.4612   15.7375 N   0  0  0  0  0  0  0  0  0  0  0  0
    5.3549   -9.6322   18.3190 C   0  0  0  0  0  0  0  0  0  0  0  0
   10.3704   -4.9638   18.6510 C   0  0  0  0  0  0  0  0  0  0  0  0
    5.5935   -8.6419   17.4234 C   0  0  0  0  0  0  0  0  0  0  0  0
   13.0726   -4.6648   23.3394 O   0  0  0  0  0  0  0  0  0  0  0  0
    8.5955   -6.0705   17.3996 C   0  0  0  0  0  0  0  0  0  0  0  0
    4.6223   -8.3832   16.5030 C   0  0  0  0  0  0  0  0  0  0  0  0
   12.4690   -5.2624   19.9024 C   0  0  0  0  0  0  0  0  0  0  0  0
    3.2548   -9.9919   17.4189 C   0  0  0  0  0  0  0  0  0  0  0  0
   12.4767   -4.7393   22.1790 C   0  0  0  0  0  0  0  0  0  0  0  0
    7.8593   -5.3772   15.3569 N   0  0  0  0  0  0  0  0  0  0  0  0
    7.4412   -6.9038   16.9283 C   0  0  0  0  0  0  0  0  0  0  0  0
  1 21  4  0
  1 23  4  0
  2  5  1  0
  2 13  4  0
  2 16  4  0
  3  6  4  0
  3  7  4  0
  4 13  4  0
  4 19  4  0
  4 24  4  0
  6 23  4  0
  7 16  1  0
  7 21  4  0
  8 18  1  0
  9 20  4  0
  9 22  4  0
 10 17  1  0
 10 25  1  0
 11 16  4  0
 11 19  4  0
 12 15  4  0
 12 22  4  0
 14 24  4  0
 14 25  4  0
 15 17  4  0
 17 20  4  0
 18 23  1  0
 19 25  4  0
M  END
$$$$

 Created by Python create_sdf_string function

 25 28  0  0  0  0  0  0  0  0999 V2000
   13.1533   -5.2399   21.0682 C   0  0  0  0  0  0  0  0  0  0  0  0
   10.4729   -4.0295   17.6135 C   0  0  0  0  0  0  0  0  0  0  0  0
   10.4789   -4.3641   20.9564 C   0  0  0  0  0  0  0  0  0  0  0  0
    8.7421   -5.1412   16.3650 C   0  0  0  0  0  0  0  0  0  0  0  0
   11.4353   -2.9204   17.8044 C   0  0  0  0  0  0  0  0  0  0  0  0
   11.1529   -4.3028   22.1277 C   0  0  0  0  0  0  0  0  0  0  0  0
   11.1290   -4.8502   19.8052 C   0  0  0  0  0  0  0  0  0  0  0  0
   12.4329   -4.2159   24.4224 C   0  0  0  0  0  0  0  0  0  0  0  0
    3.4740   -9.0387   16.5022 C   0  0  0  0  0  0  0  0  0  0  0  0
    6.8384   -7.9290   17.5282 N   0  0  0  0  0  0  0  0  0  0  0  0
    9.4126   -5.9853   18.4899 C   0  0  0  0  0  0  0  0  0  0  0  0
    4.2064  -10.3242   18.3302 C   0  0  0  0  0  0  0  0  0  0  0  0
    9.6599   -4.1551   16.4796 N   0  0  0  0  0  0  0  0  0  0  0  0
    7.0644   -6.4612   15.7375 N   0  0  0  0  0  0  0  0  0  0  0  0
    5.3549   -9.6322   18.3190 C   0  0  0  0  0  0  0  0  0  0  0  0
   10.3704   -4.9638   18.6510 C   0  0  0  0  0  0  0  0  0  0  0  0
    5.5935   -8.6419   17.4234 C   0  0  0  0  0  0  0  0  0  0  0  0
   13.0726   -4.6648   23.3394 O   0  0  0  0  0  0  0  0  0  0  0  0
    8.5955   -6.0705   17.3996 C   0  0  0  0  0  0  0  0  0  0  0  0
    4.6223   -8.3832   16.5030 C   0  0  0  0  0  0  0  0  0  0  0  0
   12.4690   -5.2624   19.9024 C   0  0  0  0  0  0  0  0  0  0  0  0
    3.2548   -9.9919   17.4189 C   0  0  0  0  0  0  0  0  0  0  0  0
   12.4767   -4.7393   22.1790 C   0  0  0  0  0  0  0  0  0  0  0  0
    7.8593   -5.3772   15.3569 N   0  0  0  0  0  0  0  0  0  0  0  0
    7.4412   -6.9038   16.9283 C   0  0  0  0  0  0  0  0  0  0  0  0
  1 21  4  0
  1 23  4  0
  2  5  1  0
  2 13  4  0
  2 16  4  0
  3  6  4  0
  3  7  4  0
  4 13  4  0
  4 19  4  0
  4 24  4  0
  6 23  4  0
  7 16  1  0
  7 21  4  0
  8 18  1  0
  9 20  4  0
  9 22  4  0
 10 17  1  0
 10 25  1  0
 11 16  4  0
 11 19  4  0
 12 15  4  0
 12 22  4  0
 14 24  4  0
 14 25  4  0
 15 17  4  0
 17 20  4  0
 18 23  1  0
 19 25  4  0
M  END
$$$$

 Created by Python create_sdf_string function

 25 28  0  0  0  0  0  0  0  0999 V2000
   13.1533   -5.2399   21.0682 C   0  0  0  0  0  0  0  0  0  0  0  0
   10.4729   -4.0295   17.6135 C   0  0  0  0  0  0  0  0  0  0  0  0
   10.4789   -4.3641   20.9564 C   0  0  0  0  0  0  0  0  0  0  0  0
    8.7421   -5.1412   16.3650 C   0  0  0  0  0  0  0  0  0  0  0  0
   11.4353   -2.9204   17.8044 C   0  0  0  0  0  0  0  0  0  0  0  0
   11.1529   -4.3028   22.1277 C   0  0  0  0  0  0  0  0  0  0  0  0
   11.1290   -4.8502   19.8052 C   0  0  0  0  0  0  0  0  0  0  0  0
   12.4329   -4.2159   24.4224 C   0  0  0  0  0  0  0  0  0  0  0  0
    3.4740   -9.0387   16.5022 C   0  0  0  0  0  0  0  0  0  0  0  0
    6.8384   -7.9290   17.5282 N   0  0  0  0  0  0  0  0  0  0  0  0
    9.4126   -5.9853   18.4899 C   0  0  0  0  0  0  0  0  0  0  0  0
    4.2064  -10.3242   18.3302 C   0  0  0  0  0  0  0  0  0  0  0  0
    9.6599   -4.1551   16.4796 N   0  0  0  0  0  0  0  0  0  0  0  0
    7.0644   -6.4612   15.7375 N   0  0  0  0  0  0  0  0  0  0  0  0
    5.3549   -9.6322   18.3190 C   0  0  0  0  0  0  0  0  0  0  0  0
   10.3704   -4.9638   18.6510 C   0  0  0  0  0  0  0  0  0  0  0  0
    5.5935   -8.6419   17.4234 C   0  0  0  0  0  0  0  0  0  0  0  0
   13.0726   -4.6648   23.3394 O   0  0  0  0  0  0  0  0  0  0  0  0
    8.5955   -6.0705   17.3996 C   0  0  0  0  0  0  0  0  0  0  0  0
    4.6223   -8.3832   16.5030 C   0  0  0  0  0  0  0  0  0  0  0  0
   12.4690   -5.2624   19.9024 C   0  0  0  0  0  0  0  0  0  0  0  0
    3.2548   -9.9919   17.4189 C   0  0  0  0  0  0  0  0  0  0  0  0
   12.4767   -4.7393   22.1790 C   0  0  0  0  0  0  0  0  0  0  0  0
    7.8593   -5.3772   15.3569 N   0  0  0  0  0  0  0  0  0  0  0  0
    7.4412   -6.9038   16.9283 C   0  0  0  0  0  0  0  0  0  0  0  0
  1 21  4  0
  1 23  4  0
  2  5  1  0
  2 13  4  0
  2 16  4  0
  3  6  4  0
  3  7  4  0
  4 13  4  0
  4 19  4  0
  4 24  4  0
  6 23  4  0
  7 16  1  0
  7 21  4  0
  8 18  1  0
  9 20  4  0
  9 22  4  0
 10 17  1  0
 10 25  1  0
 11 16  4  0
 11 19  4  0
 12 15  4  0
 12 22  4  0
 14 24  4  0
 14 25  4  0
 15 17  4  0
 17 20  4  0
 18 23  1  0
 19 25  4  0
M  END
$$$$

 Created by Python create_sdf_string function

 25 28  0  0  0  0  0  0  0  0999 V2000
   13.1533   -5.2399   21.0682 C   0  0  0  0  0  0  0  0  0  0  0  0
   10.4729   -4.0295   17.6135 C   0  0  0  0  0  0  0  0  0  0  0  0
   10.4789   -4.3641   20.9564 C   0  0  0  0  0  0  0  0  0  0  0  0
    8.7421   -5.1412   16.3650 C   0  0  0  0  0  0  0  0  0  0  0  0
   11.4353   -2.9204   17.8044 C   0  0  0  0  0  0  0  0  0  0  0  0
   11.1529   -4.3028   22.1277 C   0  0  0  0  0  0  0  0  0  0  0  0
   11.1290   -4.8502   19.8052 C   0  0  0  0  0  0  0  0  0  0  0  0
   12.4329   -4.2159   24.4224 C   0  0  0  0  0  0  0  0  0  0  0  0
    3.4740   -9.0387   16.5022 C   0  0  0  0  0  0  0  0  0  0  0  0
    6.8384   -7.9290   17.5282 N   0  0  0  0  0  0  0  0  0  0  0  0
    9.4126   -5.9853   18.4899 C   0  0  0  0  0  0  0  0  0  0  0  0
    4.2064  -10.3242   18.3302 C   0  0  0  0  0  0  0  0  0  0  0  0
    9.6599   -4.1551   16.4796 N   0  0  0  0  0  0  0  0  0  0  0  0
    7.0644   -6.4612   15.7375 N   0  0  0  0  0  0  0  0  0  0  0  0
    5.3549   -9.6322   18.3190 C   0  0  0  0  0  0  0  0  0  0  0  0
   10.3704   -4.9638   18.6510 C   0  0  0  0  0  0  0  0  0  0  0  0
    5.5935   -8.6419   17.4234 C   0  0  0  0  0  0  0  0  0  0  0  0
   13.0726   -4.6648   23.3394 O   0  0  0  0  0  0  0  0  0  0  0  0
    8.5955   -6.0705   17.3996 C   0  0  0  0  0  0  0  0  0  0  0  0
    4.6223   -8.3832   16.5030 C   0  0  0  0  0  0  0  0  0  0  0  0
   12.4690   -5.2624   19.9024 C   0  0  0  0  0  0  0  0  0  0  0  0
    3.2548   -9.9919   17.4189 C   0  0  0  0  0  0  0  0  0  0  0  0
   12.4767   -4.7393   22.1790 C   0  0  0  0  0  0  0  0  0  0  0  0
    7.8593   -5.3772   15.3569 N   0  0  0  0  0  0  0  0  0  0  0  0
    7.4412   -6.9038   16.9283 C   0  0  0  0  0  0  0  0  0  0  0  0
  1 21  4  0
  1 23  4  0
  2  5  1  0
  2 13  4  0
  2 16  4  0
  3  6  4  0
  3  7  4  0
  4 13  4  0
  4 19  4  0
  4 24  4  0
  6 23  4  0
  7 16  1  0
  7 21  4  0
  8 18  1  0
  9 20  4  0
  9 22  4  0
 10 17  1  0
 10 25  1  0
 11 16  4  0
 11 19  4  0
 12 15  4  0
 12 22  4  0
 14 24  4  0
 14 25  4  0
 15 17  4  0
 17 20  4  0
 18 23  1  0
 19 25  4  0
M  END
$$$$

 Created by Python create_sdf_string function

 25 28  0  0  0  0  0  0  0  0999 V2000
   13.1533   -5.2399   21.0682 C   0  0  0  0  0  0  0  0  0  0  0  0
   10.4729   -4.0295   17.6135 C   0  0  0  0  0  0  0  0  0  0  0  0
   10.4789   -4.3641   20.9564 C   0  0  0  0  0  0  0  0  0  0  0  0
    8.7421   -5.1412   16.3650 C   0  0  0  0  0  0  0  0  0  0  0  0
   11.4353   -2.9204   17.8044 C   0  0  0  0  0  0  0  0  0  0  0  0
   11.1529   -4.3028   22.1277 C   0  0  0  0  0  0  0  0  0  0  0  0
   11.1290   -4.8502   19.8052 C   0  0  0  0  0  0  0  0  0  0  0  0
   12.4329   -4.2159   24.4224 C   0  0  0  0  0  0  0  0  0  0  0  0
    3.4740   -9.0387   16.5022 C   0  0  0  0  0  0  0  0  0  0  0  0
    6.8384   -7.9290   17.5282 N   0  0  0  0  0  0  0  0  0  0  0  0
    9.4126   -5.9853   18.4899 C   0  0  0  0  0  0  0  0  0  0  0  0
    4.2064  -10.3242   18.3302 C   0  0  0  0  0  0  0  0  0  0  0  0
    9.6599   -4.1551   16.4796 N   0  0  0  0  0  0  0  0  0  0  0  0
    7.0644   -6.4612   15.7375 N   0  0  0  0  0  0  0  0  0  0  0  0
    5.3549   -9.6322   18.3190 C   0  0  0  0  0  0  0  0  0  0  0  0
   10.3704   -4.9638   18.6510 C   0  0  0  0  0  0  0  0  0  0  0  0
    5.5935   -8.6419   17.4234 C   0  0  0  0  0  0  0  0  0  0  0  0
   13.0726   -4.6648   23.3394 O   0  0  0  0  0  0  0  0  0  0  0  0
    8.5955   -6.0705   17.3996 C   0  0  0  0  0  0  0  0  0  0  0  0
    4.6223   -8.3832   16.5030 C   0  0  0  0  0  0  0  0  0  0  0  0
   12.4690   -5.2624   19.9024 C   0  0  0  0  0  0  0  0  0  0  0  0
    3.2548   -9.9919   17.4189 C   0  0  0  0  0  0  0  0  0  0  0  0
   12.4767   -4.7393   22.1790 C   0  0  0  0  0  0  0  0  0  0  0  0
    7.8593   -5.3772   15.3569 N   0  0  0  0  0  0  0  0  0  0  0  0
    7.4412   -6.9038   16.9283 C   0  0  0  0  0  0  0  0  0  0  0  0
  1 21  4  0
  1 23  4  0
  2  5  1  0
  2 13  4  0
  2 16  4  0
  3  6  4  0
  3  7  4  0
  4 13  4  0
  4 19  4  0
  4 24  4  0
  6 23  4  0
  7 16  1  0
  7 21  4  0
  8 18  1  0
  9 20  4  0
  9 22  4  0
 10 17  1  0
 10 25  1  0
 11 16  4  0
 11 19  4  0
 12 15  4  0
 12 22  4  0
 14 24  4  0
 14 25  4  0
 15 17  4  0
 17 20  4  0
 18 23  1  0
 19 25  4  0
M  END
$$$$

 Created by Python create_sdf_string function

 25 28  0  0  0  0  0  0  0  0999 V2000
   13.1533   -5.2399   21.0682 C   0  0  0  0  0  0  0  0  0  0  0  0
   10.4729   -4.0295   17.6135 C   0  0  0  0  0  0  0  0  0  0  0  0
   10.4789   -4.3641   20.9564 C   0  0  0  0  0  0  0  0  0  0  0  0
    8.7421   -5.1412   16.3650 C   0  0  0  0  0  0  0  0  0  0  0  0
   11.4353   -2.9204   17.8044 C   0  0  0  0  0  0  0  0  0  0  0  0
   11.1529   -4.3028   22.1277 C   0  0  0  0  0  0  0  0  0  0  0  0
   11.1290   -4.8502   19.8052 C   0  0  0  0  0  0  0  0  0  0  0  0
   12.4329   -4.2159   24.4224 C   0  0  0  0  0  0  0  0  0  0  0  0
    3.4740   -9.0387   16.5022 C   0  0  0  0  0  0  0  0  0  0  0  0
    6.8384   -7.9290   17.5282 N   0  0  0  0  0  0  0  0  0  0  0  0
    9.4126   -5.9853   18.4899 C   0  0  0  0  0  0  0  0  0  0  0  0
    4.2064  -10.3242   18.3302 C   0  0  0  0  0  0  0  0  0  0  0  0
    9.6599   -4.1551   16.4796 N   0  0  0  0  0  0  0  0  0  0  0  0
    7.0644   -6.4612   15.7375 N   0  0  0  0  0  0  0  0  0  0  0  0
    5.3549   -9.6322   18.3190 C   0  0  0  0  0  0  0  0  0  0  0  0
   10.3704   -4.9638   18.6510 C   0  0  0  0  0  0  0  0  0  0  0  0
    5.5935   -8.6419   17.4234 C   0  0  0  0  0  0  0  0  0  0  0  0
   13.0726   -4.6648   23.3394 O   0  0  0  0  0  0  0  0  0  0  0  0
    8.5955   -6.0705   17.3996 C   0  0  0  0  0  0  0  0  0  0  0  0
    4.6223   -8.3832   16.5030 C   0  0  0  0  0  0  0  0  0  0  0  0
   12.4690   -5.2624   19.9024 C   0  0  0  0  0  0  0  0  0  0  0  0
    3.2548   -9.9919   17.4189 C   0  0  0  0  0  0  0  0  0  0  0  0
   12.4767   -4.7393   22.1790 C   0  0  0  0  0  0  0  0  0  0  0  0
    7.8593   -5.3772   15.3569 N   0  0  0  0  0  0  0  0  0  0  0  0
    7.4412   -6.9038   16.9283 C   0  0  0  0  0  0  0  0  0  0  0  0
  1 21  4  0
  1 23  4  0
  2  5  1  0
  2 13  4  0
  2 16  4  0
  3  6  4  0
  3  7  4  0
  4 13  4  0
  4 19  4  0
  4 24  4  0
  6 23  4  0
  7 16  1  0
  7 21  4  0
  8 18  1  0
  9 20  4  0
  9 22  4  0
 10 17  1  0
 10 25  1  0
 11 16  4  0
 11 19  4  0
 12 15  4  0
 12 22  4  0
 14 24  4  0
 14 25  4  0
 15 17  4  0
 17 20  4  0
 18 23  1  0
 19 25  4  0
M  END
$$$$

 Created by Python create_sdf_string function

 25 28  0  0  0  0  0  0  0  0999 V2000
   13.1533   -5.2399   21.0682 C   0  0  0  0  0  0  0  0  0  0  0  0
   10.4729   -4.0295   17.6135 C   0  0  0  0  0  0  0  0  0  0  0  0
   10.4789   -4.3641   20.9564 C   0  0  0  0  0  0  0  0  0  0  0  0
    8.7421   -5.1412   16.3650 C   0  0  0  0  0  0  0  0  0  0  0  0
   11.4353   -2.9204   17.8044 C   0  0  0  0  0  0  0  0  0  0  0  0
   11.1529   -4.3028   22.1277 C   0  0  0  0  0  0  0  0  0  0  0  0
   11.1290   -4.8502   19.8052 C   0  0  0  0  0  0  0  0  0  0  0  0
   12.4329   -4.2159   24.4224 C   0  0  0  0  0  0  0  0  0  0  0  0
    3.4740   -9.0387   16.5022 C   0  0  0  0  0  0  0  0  0  0  0  0
    6.8384   -7.9290   17.5282 N   0  0  0  0  0  0  0  0  0  0  0  0
    9.4126   -5.9853   18.4899 C   0  0  0  0  0  0  0  0  0  0  0  0
    4.2064  -10.3242   18.3302 C   0  0  0  0  0  0  0  0  0  0  0  0
    9.6599   -4.1551   16.4796 N   0  0  0  0  0  0  0  0  0  0  0  0
    7.0644   -6.4612   15.7375 N   0  0  0  0  0  0  0  0  0  0  0  0
    5.3549   -9.6322   18.3190 C   0  0  0  0  0  0  0  0  0  0  0  0
   10.3704   -4.9638   18.6510 C   0  0  0  0  0  0  0  0  0  0  0  0
    5.5935   -8.6419   17.4234 C   0  0  0  0  0  0  0  0  0  0  0  0
   13.0726   -4.6648   23.3394 O   0  0  0  0  0  0  0  0  0  0  0  0
    8.5955   -6.0705   17.3996 C   0  0  0  0  0  0  0  0  0  0  0  0
    4.6223   -8.3832   16.5030 C   0  0  0  0  0  0  0  0  0  0  0  0
   12.4690   -5.2624   19.9024 C   0  0  0  0  0  0  0  0  0  0  0  0
    3.2548   -9.9919   17.4189 C   0  0  0  0  0  0  0  0  0  0  0  0
   12.4767   -4.7393   22.1790 C   0  0  0  0  0  0  0  0  0  0  0  0
    7.8593   -5.3772   15.3569 N   0  0  0  0  0  0  0  0  0  0  0  0
    7.4412   -6.9038   16.9283 C   0  0  0  0  0  0  0  0  0  0  0  0
  1 21  4  0
  1 23  4  0
  2  5  1  0
  2 13  4  0
  2 16  4  0
  3  6  4  0
  3  7  4  0
  4 13  4  0
  4 19  4  0
  4 24  4  0
  6 23  4  0
  7 16  1  0
  7 21  4  0
  8 18  1  0
  9 20  4  0
  9 22  4  0
 10 17  1  0
 10 25  1  0
 11 16  4  0
 11 19  4  0
 12 15  4  0
 12 22  4  0
 14 24  4  0
 14 25  4  0
 15 17  4  0
 17 20  4  0
 18 23  1  0
 19 25  4  0
M  END
$$$$

 Created by Python create_sdf_string function

 25 28  0  0  0  0  0  0  0  0999 V2000
   13.1533   -5.2399   21.0682 C   0  0  0  0  0  0  0  0  0  0  0  0
   10.4729   -4.0295   17.6135 C   0  0  0  0  0  0  0  0  0  0  0  0
   10.4789   -4.3641   20.9564 C   0  0  0  0  0  0  0  0  0  0  0  0
    8.7421   -5.1412   16.3650 C   0  0  0  0  0  0  0  0  0  0  0  0
   11.4353   -2.9204   17.8044 C   0  0  0  0  0  0  0  0  0  0  0  0
   11.1529   -4.3028   22.1277 C   0  0  0  0  0  0  0  0  0  0  0  0
   11.1290   -4.8502   19.8052 C   0  0  0  0  0  0  0  0  0  0  0  0
   12.4329   -4.2159   24.4224 C   0  0  0  0  0  0  0  0  0  0  0  0
    3.4740   -9.0387   16.5022 C   0  0  0  0  0  0  0  0  0  0  0  0
    6.8384   -7.9290   17.5282 N   0  0  0  0  0  0  0  0  0  0  0  0
    9.4126   -5.9853   18.4899 C   0  0  0  0  0  0  0  0  0  0  0  0
    4.2064  -10.3242   18.3302 C   0  0  0  0  0  0  0  0  0  0  0  0
    9.6599   -4.1551   16.4796 N   0  0  0  0  0  0  0  0  0  0  0  0
    7.0644   -6.4612   15.7375 N   0  0  0  0  0  0  0  0  0  0  0  0
    5.3549   -9.6322   18.3190 C   0  0  0  0  0  0  0  0  0  0  0  0
   10.3704   -4.9638   18.6510 C   0  0  0  0  0  0  0  0  0  0  0  0
    5.5935   -8.6419   17.4234 C   0  0  0  0  0  0  0  0  0  0  0  0
   13.0726   -4.6648   23.3394 O   0  0  0  0  0  0  0  0  0  0  0  0
    8.5955   -6.0705   17.3996 C   0  0  0  0  0  0  0  0  0  0  0  0
    4.6223   -8.3832   16.5030 C   0  0  0  0  0  0  0  0  0  0  0  0
   12.4690   -5.2624   19.9024 C   0  0  0  0  0  0  0  0  0  0  0  0
    3.2548   -9.9919   17.4189 C   0  0  0  0  0  0  0  0  0  0  0  0
   12.4767   -4.7393   22.1790 C   0  0  0  0  0  0  0  0  0  0  0  0
    7.8593   -5.3772   15.3569 N   0  0  0  0  0  0  0  0  0  0  0  0
    7.4412   -6.9038   16.9283 C   0  0  0  0  0  0  0  0  0  0  0  0
  1 21  4  0
  1 23  4  0
  2  5  1  0
  2 13  4  0
  2 16  4  0
  3  6  4  0
  3  7  4  0
  4 13  4  0
  4 19  4  0
  4 24  4  0
  6 23  4  0
  7 16  1  0
  7 21  4  0
  8 18  1  0
  9 20  4  0
  9 22  4  0
 10 17  1  0
 10 25  1  0
 11 16  4  0
 11 19  4  0
 12 15  4  0
 12 22  4  0
 14 24  4  0
 14 25  4  0
 15 17  4  0
 17 20  4  0
 18 23  1  0
 19 25  4  0
M  END
$$$$

 Created by Python create_sdf_string function

 25 28  0  0  0  0  0  0  0  0999 V2000
   13.1533   -5.2399   21.0682 C   0  0  0  0  0  0  0  0  0  0  0  0
   10.4729   -4.0295   17.6135 C   0  0  0  0  0  0  0  0  0  0  0  0
   10.4789   -4.3641   20.9564 C   0  0  0  0  0  0  0  0  0  0  0  0
    8.7421   -5.1412   16.3650 C   0  0  0  0  0  0  0  0  0  0  0  0
   11.4353   -2.9204   17.8044 C   0  0  0  0  0  0  0  0  0  0  0  0
   11.1529   -4.3028   22.1277 C   0  0  0  0  0  0  0  0  0  0  0  0
   11.1290   -4.8502   19.8052 C   0  0  0  0  0  0  0  0  0  0  0  0
   12.4329   -4.2159   24.4224 C   0  0  0  0  0  0  0  0  0  0  0  0
    3.4740   -9.0387   16.5022 C   0  0  0  0  0  0  0  0  0  0  0  0
    6.8384   -7.9290   17.5282 N   0  0  0  0  0  0  0  0  0  0  0  0
    9.4126   -5.9853   18.4899 C   0  0  0  0  0  0  0  0  0  0  0  0
    4.2064  -10.3242   18.3302 C   0  0  0  0  0  0  0  0  0  0  0  0
    9.6599   -4.1551   16.4796 N   0  0  0  0  0  0  0  0  0  0  0  0
    7.0644   -6.4612   15.7375 N   0  0  0  0  0  0  0  0  0  0  0  0
    5.3549   -9.6322   18.3190 C   0  0  0  0  0  0  0  0  0  0  0  0
   10.3704   -4.9638   18.6510 C   0  0  0  0  0  0  0  0  0  0  0  0
    5.5935   -8.6419   17.4234 C   0  0  0  0  0  0  0  0  0  0  0  0
   13.0726   -4.6648   23.3394 O   0  0  0  0  0  0  0  0  0  0  0  0
    8.5955   -6.0705   17.3996 C   0  0  0  0  0  0  0  0  0  0  0  0
    4.6223   -8.3832   16.5030 C   0  0  0  0  0  0  0  0  0  0  0  0
   12.4690   -5.2624   19.9024 C   0  0  0  0  0  0  0  0  0  0  0  0
    3.2548   -9.9919   17.4189 C   0  0  0  0  0  0  0  0  0  0  0  0
   12.4767   -4.7393   22.1790 C   0  0  0  0  0  0  0  0  0  0  0  0
    7.8593   -5.3772   15.3569 N   0  0  0  0  0  0  0  0  0  0  0  0
    7.4412   -6.9038   16.9283 C   0  0  0  0  0  0  0  0  0  0  0  0
  1 21  4  0
  1 23  4  0
  2  5  1  0
  2 13  4  0
  2 16  4  0
  3  6  4  0
  3  7  4  0
  4 13  4  0
  4 19  4  0
  4 24  4  0
  6 23  4  0
  7 16  1  0
  7 21  4  0
  8 18  1  0
  9 20  4  0
  9 22  4  0
 10 17  1  0
 10 25  1  0
 11 16  4  0
 11 19  4  0
 12 15  4  0
 12 22  4  0
 14 24  4  0
 14 25  4  0
 15 17  4  0
 17 20  4  0
 18 23  1  0
 19 25  4  0
M  END
$$$$

 Created by Python create_sdf_string function

 25 28  0  0  0  0  0  0  0  0999 V2000
   13.1533   -5.2399   21.0682 C   0  0  0  0  0  0  0  0  0  0  0  0
   10.4729   -4.0295   17.6135 C   0  0  0  0  0  0  0  0  0  0  0  0
   10.4789   -4.3641   20.9564 C   0  0  0  0  0  0  0  0  0  0  0  0
    8.7421   -5.1412   16.3650 C   0  0  0  0  0  0  0  0  0  0  0  0
   11.4353   -2.9204   17.8044 C   0  0  0  0  0  0  0  0  0  0  0  0
   11.1529   -4.3028   22.1277 C   0  0  0  0  0  0  0  0  0  0  0  0
   11.1290   -4.8502   19.8052 C   0  0  0  0  0  0  0  0  0  0  0  0
   12.4329   -4.2159   24.4224 C   0  0  0  0  0  0  0  0  0  0  0  0
    3.4740   -9.0387   16.5022 C   0  0  0  0  0  0  0  0  0  0  0  0
    6.8384   -7.9290   17.5282 N   0  0  0  0  0  0  0  0  0  0  0  0
    9.4126   -5.9853   18.4899 C   0  0  0  0  0  0  0  0  0  0  0  0
    4.2064  -10.3242   18.3302 C   0  0  0  0  0  0  0  0  0  0  0  0
    9.6599   -4.1551   16.4796 N   0  0  0  0  0  0  0  0  0  0  0  0
    7.0644   -6.4612   15.7375 N   0  0  0  0  0  0  0  0  0  0  0  0
    5.3549   -9.6322   18.3190 C   0  0  0  0  0  0  0  0  0  0  0  0
   10.3704   -4.9638   18.6510 C   0  0  0  0  0  0  0  0  0  0  0  0
    5.5935   -8.6419   17.4234 C   0  0  0  0  0  0  0  0  0  0  0  0
   13.0726   -4.6648   23.3394 O   0  0  0  0  0  0  0  0  0  0  0  0
    8.5955   -6.0705   17.3996 C   0  0  0  0  0  0  0  0  0  0  0  0
    4.6223   -8.3832   16.5030 C   0  0  0  0  0  0  0  0  0  0  0  0
   12.4690   -5.2624   19.9024 C   0  0  0  0  0  0  0  0  0  0  0  0
    3.2548   -9.9919   17.4189 C   0  0  0  0  0  0  0  0  0  0  0  0
   12.4767   -4.7393   22.1790 C   0  0  0  0  0  0  0  0  0  0  0  0
    7.8593   -5.3772   15.3569 N   0  0  0  0  0  0  0  0  0  0  0  0
    7.4412   -6.9038   16.9283 C   0  0  0  0  0  0  0  0  0  0  0  0
  1 21  4  0
  1 23  4  0
  2  5  1  0
  2 13  4  0
  2 16  4  0
  3  6  4  0
  3  7  4  0
  4 13  4  0
  4 19  4  0
  4 24  4  0
  6 23  4  0
  7 16  1  0
  7 21  4  0
  8 18  1  0
  9 20  4  0
  9 22  4  0
 10 17  1  0
 10 25  1  0
 11 16  4  0
 11 19  4  0
 12 15  4  0
 12 22  4  0
 14 24  4  0
 14 25  4  0
 15 17  4  0
 17 20  4  0
 18 23  1  0
 19 25  4  0
M  END
$$$$

 Created by Python create_sdf_string function

 25 28  0  0  0  0  0  0  0  0999 V2000
   13.1533   -5.2399   21.0682 C   0  0  0  0  0  0  0  0  0  0  0  0
   10.4729   -4.0295   17.6135 C   0  0  0  0  0  0  0  0  0  0  0  0
   10.4789   -4.3641   20.9564 C   0  0  0  0  0  0  0  0  0  0  0  0
    8.7421   -5.1412   16.3650 C   0  0  0  0  0  0  0  0  0  0  0  0
   11.4353   -2.9204   17.8044 C   0  0  0  0  0  0  0  0  0  0  0  0
   11.1529   -4.3028   22.1277 C   0  0  0  0  0  0  0  0  0  0  0  0
   11.1290   -4.8502   19.8052 C   0  0  0  0  0  0  0  0  0  0  0  0
   12.4329   -4.2159   24.4224 C   0  0  0  0  0  0  0  0  0  0  0  0
    3.4740   -9.0387   16.5022 C   0  0  0  0  0  0  0  0  0  0  0  0
    6.8384   -7.9290   17.5282 N   0  0  0  0  0  0  0  0  0  0  0  0
    9.4126   -5.9853   18.4899 C   0  0  0  0  0  0  0  0  0  0  0  0
    4.2064  -10.3242   18.3302 C   0  0  0  0  0  0  0  0  0  0  0  0
    9.6599   -4.1551   16.4796 N   0  0  0  0  0  0  0  0  0  0  0  0
    7.0644   -6.4612   15.7375 N   0  0  0  0  0  0  0  0  0  0  0  0
    5.3549   -9.6322   18.3190 C   0  0  0  0  0  0  0  0  0  0  0  0
   10.3704   -4.9638   18.6510 C   0  0  0  0  0  0  0  0  0  0  0  0
    5.5935   -8.6419   17.4234 C   0  0  0  0  0  0  0  0  0  0  0  0
   13.0726   -4.6648   23.3394 O   0  0  0  0  0  0  0  0  0  0  0  0
    8.5955   -6.0705   17.3996 C   0  0  0  0  0  0  0  0  0  0  0  0
    4.6223   -8.3832   16.5030 C   0  0  0  0  0  0  0  0  0  0  0  0
   12.4690   -5.2624   19.9024 C   0  0  0  0  0  0  0  0  0  0  0  0
    3.2548   -9.9919   17.4189 C   0  0  0  0  0  0  0  0  0  0  0  0
   12.4767   -4.7393   22.1790 C   0  0  0  0  0  0  0  0  0  0  0  0
    7.8593   -5.3772   15.3569 N   0  0  0  0  0  0  0  0  0  0  0  0
    7.4412   -6.9038   16.9283 C   0  0  0  0  0  0  0  0  0  0  0  0
  1 21  4  0
  1 23  4  0
  2  5  1  0
  2 13  4  0
  2 16  4  0
  3  6  4  0
  3  7  4  0
  4 13  4  0
  4 19  4  0
  4 24  4  0
  6 23  4  0
  7 16  1  0
  7 21  4  0
  8 18  1  0
  9 20  4  0
  9 22  4  0
 10 17  1  0
 10 25  1  0
 11 16  4  0
 11 19  4  0
 12 15  4  0
 12 22  4  0
 14 24  4  0
 14 25  4  0
 15 17  4  0
 17 20  4  0
 18 23  1  0
 19 25  4  0
M  END
$$$$

 Created by Python create_sdf_string function

 25 28  0  0  0  0  0  0  0  0999 V2000
   13.1533   -5.2399   21.0682 C   0  0  0  0  0  0  0  0  0  0  0  0
   10.4729   -4.0295   17.6135 C   0  0  0  0  0  0  0  0  0  0  0  0
   10.4789   -4.3641   20.9564 C   0  0  0  0  0  0  0  0  0  0  0  0
    8.7421   -5.1412   16.3650 C   0  0  0  0  0  0  0  0  0  0  0  0
   11.4353   -2.9204   17.8044 C   0  0  0  0  0  0  0  0  0  0  0  0
   11.1529   -4.3028   22.1277 C   0  0  0  0  0  0  0  0  0  0  0  0
   11.1290   -4.8502   19.8052 C   0  0  0  0  0  0  0  0  0  0  0  0
   12.4329   -4.2159   24.4224 C   0  0  0  0  0  0  0  0  0  0  0  0
    3.4740   -9.0387   16.5022 C   0  0  0  0  0  0  0  0  0  0  0  0
    6.8384   -7.9290   17.5282 N   0  0  0  0  0  0  0  0  0  0  0  0
    9.4126   -5.9853   18.4899 C   0  0  0  0  0  0  0  0  0  0  0  0
    4.2064  -10.3242   18.3302 C   0  0  0  0  0  0  0  0  0  0  0  0
    9.6599   -4.1551   16.4796 N   0  0  0  0  0  0  0  0  0  0  0  0
    7.0644   -6.4612   15.7375 N   0  0  0  0  0  0  0  0  0  0  0  0
    5.3549   -9.6322   18.3190 C   0  0  0  0  0  0  0  0  0  0  0  0
   10.3704   -4.9638   18.6510 C   0  0  0  0  0  0  0  0  0  0  0  0
    5.5935   -8.6419   17.4234 C   0  0  0  0  0  0  0  0  0  0  0  0
   13.0726   -4.6648   23.3394 O   0  0  0  0  0  0  0  0  0  0  0  0
    8.5955   -6.0705   17.3996 C   0  0  0  0  0  0  0  0  0  0  0  0
    4.6223   -8.3832   16.5030 C   0  0  0  0  0  0  0  0  0  0  0  0
   12.4690   -5.2624   19.9024 C   0  0  0  0  0  0  0  0  0  0  0  0
    3.2548   -9.9919   17.4189 C   0  0  0  0  0  0  0  0  0  0  0  0
   12.4767   -4.7393   22.1790 C   0  0  0  0  0  0  0  0  0  0  0  0
    7.8593   -5.3772   15.3569 N   0  0  0  0  0  0  0  0  0  0  0  0
    7.4412   -6.9038   16.9283 C   0  0  0  0  0  0  0  0  0  0  0  0
  1 21  4  0
  1 23  4  0
  2  5  1  0
  2 13  4  0
  2 16  4  0
  3  6  4  0
  3  7  4  0
  4 13  4  0
  4 19  4  0
  4 24  4  0
  6 23  4  0
  7 16  1  0
  7 21  4  0
  8 18  1  0
  9 20  4  0
  9 22  4  0
 10 17  1  0
 10 25  1  0
 11 16  4  0
 11 19  4  0
 12 15  4  0
 12 22  4  0
 14 24  4  0
 14 25  4  0
 15 17  4  0
 17 20  4  0
 18 23  1  0
 19 25  4  0
M  END
$$$$

 Created by Python create_sdf_string function

 25 28  0  0  0  0  0  0  0  0999 V2000
   13.1533   -5.2399   21.0682 C   0  0  0  0  0  0  0  0  0  0  0  0
   10.4729   -4.0295   17.6135 C   0  0  0  0  0  0  0  0  0  0  0  0
   10.4789   -4.3641   20.9564 C   0  0  0  0  0  0  0  0  0  0  0  0
    8.7421   -5.1412   16.3650 C   0  0  0  0  0  0  0  0  0  0  0  0
   11.4353   -2.9204   17.8044 C   0  0  0  0  0  0  0  0  0  0  0  0
   11.1529   -4.3028   22.1277 C   0  0  0  0  0  0  0  0  0  0  0  0
   11.1290   -4.8502   19.8052 C   0  0  0  0  0  0  0  0  0  0  0  0
   12.4329   -4.2159   24.4224 C   0  0  0  0  0  0  0  0  0  0  0  0
    3.4740   -9.0387   16.5022 C   0  0  0  0  0  0  0  0  0  0  0  0
    6.8384   -7.9290   17.5282 N   0  0  0  0  0  0  0  0  0  0  0  0
    9.4126   -5.9853   18.4899 C   0  0  0  0  0  0  0  0  0  0  0  0
    4.2064  -10.3242   18.3302 C   0  0  0  0  0  0  0  0  0  0  0  0
    9.6599   -4.1551   16.4796 N   0  0  0  0  0  0  0  0  0  0  0  0
    7.0644   -6.4612   15.7375 N   0  0  0  0  0  0  0  0  0  0  0  0
    5.3549   -9.6322   18.3190 C   0  0  0  0  0  0  0  0  0  0  0  0
   10.3704   -4.9638   18.6510 C   0  0  0  0  0  0  0  0  0  0  0  0
    5.5935   -8.6419   17.4234 C   0  0  0  0  0  0  0  0  0  0  0  0
   13.0726   -4.6648   23.3394 O   0  0  0  0  0  0  0  0  0  0  0  0
    8.5955   -6.0705   17.3996 C   0  0  0  0  0  0  0  0  0  0  0  0
    4.6223   -8.3832   16.5030 C   0  0  0  0  0  0  0  0  0  0  0  0
   12.4690   -5.2624   19.9024 C   0  0  0  0  0  0  0  0  0  0  0  0
    3.2548   -9.9919   17.4189 C   0  0  0  0  0  0  0  0  0  0  0  0
   12.4767   -4.7393   22.1790 C   0  0  0  0  0  0  0  0  0  0  0  0
    7.8593   -5.3772   15.3569 N   0  0  0  0  0  0  0  0  0  0  0  0
    7.4412   -6.9038   16.9283 C   0  0  0  0  0  0  0  0  0  0  0  0
  1 21  4  0
  1 23  4  0
  2  5  1  0
  2 13  4  0
  2 16  4  0
  3  6  4  0
  3  7  4  0
  4 13  4  0
  4 19  4  0
  4 24  4  0
  6 23  4  0
  7 16  1  0
  7 21  4  0
  8 18  1  0
  9 20  4  0
  9 22  4  0
 10 17  1  0
 10 25  1  0
 11 16  4  0
 11 19  4  0
 12 15  4  0
 12 22  4  0
 14 24  4  0
 14 25  4  0
 15 17  4  0
 17 20  4  0
 18 23  1  0
 19 25  4  0
M  END
$$$$

 Created by Python create_sdf_string function

 25 28  0  0  0  0  0  0  0  0999 V2000
   13.1533   -5.2399   21.0682 C   0  0  0  0  0  0  0  0  0  0  0  0
   10.4729   -4.0295   17.6135 C   0  0  0  0  0  0  0  0  0  0  0  0
   10.4789   -4.3641   20.9564 C   0  0  0  0  0  0  0  0  0  0  0  0
    8.7421   -5.1412   16.3650 C   0  0  0  0  0  0  0  0  0  0  0  0
   11.4353   -2.9204   17.8044 C   0  0  0  0  0  0  0  0  0  0  0  0
   11.1529   -4.3028   22.1277 C   0  0  0  0  0  0  0  0  0  0  0  0
   11.1290   -4.8502   19.8052 C   0  0  0  0  0  0  0  0  0  0  0  0
   12.4329   -4.2159   24.4224 C   0  0  0  0  0  0  0  0  0  0  0  0
    3.4740   -9.0387   16.5022 C   0  0  0  0  0  0  0  0  0  0  0  0
    6.8384   -7.9290   17.5282 N   0  0  0  0  0  0  0  0  0  0  0  0
    9.4126   -5.9853   18.4899 C   0  0  0  0  0  0  0  0  0  0  0  0
    4.2064  -10.3242   18.3302 C   0  0  0  0  0  0  0  0  0  0  0  0
    9.6599   -4.1551   16.4796 N   0  0  0  0  0  0  0  0  0  0  0  0
    7.0644   -6.4612   15.7375 N   0  0  0  0  0  0  0  0  0  0  0  0
    5.3549   -9.6322   18.3190 C   0  0  0  0  0  0  0  0  0  0  0  0
   10.3704   -4.9638   18.6510 C   0  0  0  0  0  0  0  0  0  0  0  0
    5.5935   -8.6419   17.4234 C   0  0  0  0  0  0  0  0  0  0  0  0
   13.0726   -4.6648   23.3394 O   0  0  0  0  0  0  0  0  0  0  0  0
    8.5955   -6.0705   17.3996 C   0  0  0  0  0  0  0  0  0  0  0  0
    4.6223   -8.3832   16.5030 C   0  0  0  0  0  0  0  0  0  0  0  0
   12.4690   -5.2624   19.9024 C   0  0  0  0  0  0  0  0  0  0  0  0
    3.2548   -9.9919   17.4189 C   0  0  0  0  0  0  0  0  0  0  0  0
   12.4767   -4.7393   22.1790 C   0  0  0  0  0  0  0  0  0  0  0  0
    7.8593   -5.3772   15.3569 N   0  0  0  0  0  0  0  0  0  0  0  0
    7.4412   -6.9038   16.9283 C   0  0  0  0  0  0  0  0  0  0  0  0
  1 21  4  0
  1 23  4  0
  2  5  1  0
  2 13  4  0
  2 16  4  0
  3  6  4  0
  3  7  4  0
  4 13  4  0
  4 19  4  0
  4 24  4  0
  6 23  4  0
  7 16  1  0
  7 21  4  0
  8 18  1  0
  9 20  4  0
  9 22  4  0
 10 17  1  0
 10 25  1  0
 11 16  4  0
 11 19  4  0
 12 15  4  0
 12 22  4  0
 14 24  4  0
 14 25  4  0
 15 17  4  0
 17 20  4  0
 18 23  1  0
 19 25  4  0
M  END
$$$$

 Created by Python create_sdf_string function

 25 28  0  0  0  0  0  0  0  0999 V2000
   13.1533   -5.2399   21.0682 C   0  0  0  0  0  0  0  0  0  0  0  0
   10.4729   -4.0295   17.6135 C   0  0  0  0  0  0  0  0  0  0  0  0
   10.4789   -4.3641   20.9564 C   0  0  0  0  0  0  0  0  0  0  0  0
    8.7421   -5.1412   16.3650 C   0  0  0  0  0  0  0  0  0  0  0  0
   11.4353   -2.9204   17.8044 C   0  0  0  0  0  0  0  0  0  0  0  0
   11.1529   -4.3028   22.1277 C   0  0  0  0  0  0  0  0  0  0  0  0
   11.1290   -4.8502   19.8052 C   0  0  0  0  0  0  0  0  0  0  0  0
   12.4329   -4.2159   24.4224 C   0  0  0  0  0  0  0  0  0  0  0  0
    3.4740   -9.0387   16.5022 C   0  0  0  0  0  0  0  0  0  0  0  0
    6.8384   -7.9290   17.5282 N   0  0  0  0  0  0  0  0  0  0  0  0
    9.4126   -5.9853   18.4899 C   0  0  0  0  0  0  0  0  0  0  0  0
    4.2064  -10.3242   18.3302 C   0  0  0  0  0  0  0  0  0  0  0  0
    9.6599   -4.1551   16.4796 N   0  0  0  0  0  0  0  0  0  0  0  0
    7.0644   -6.4612   15.7375 N   0  0  0  0  0  0  0  0  0  0  0  0
    5.3549   -9.6322   18.3190 C   0  0  0  0  0  0  0  0  0  0  0  0
   10.3704   -4.9638   18.6510 C   0  0  0  0  0  0  0  0  0  0  0  0
    5.5935   -8.6419   17.4234 C   0  0  0  0  0  0  0  0  0  0  0  0
   13.0726   -4.6648   23.3394 O   0  0  0  0  0  0  0  0  0  0  0  0
    8.5955   -6.0705   17.3996 C   0  0  0  0  0  0  0  0  0  0  0  0
    4.6223   -8.3832   16.5030 C   0  0  0  0  0  0  0  0  0  0  0  0
   12.4690   -5.2624   19.9024 C   0  0  0  0  0  0  0  0  0  0  0  0
    3.2548   -9.9919   17.4189 C   0  0  0  0  0  0  0  0  0  0  0  0
   12.4767   -4.7393   22.1790 C   0  0  0  0  0  0  0  0  0  0  0  0
    7.8593   -5.3772   15.3569 N   0  0  0  0  0  0  0  0  0  0  0  0
    7.4412   -6.9038   16.9283 C   0  0  0  0  0  0  0  0  0  0  0  0
  1 21  4  0
  1 23  4  0
  2  5  1  0
  2 13  4  0
  2 16  4  0
  3  6  4  0
  3  7  4  0
  4 13  4  0
  4 19  4  0
  4 24  4  0
  6 23  4  0
  7 16  1  0
  7 21  4  0
  8 18  1  0
  9 20  4  0
  9 22  4  0
 10 17  1  0
 10 25  1  0
 11 16  4  0
 11 19  4  0
 12 15  4  0
 12 22  4  0
 14 24  4  0
 14 25  4  0
 15 17  4  0
 17 20  4  0
 18 23  1  0
 19 25  4  0
M  END
$$$$

 Created by Python create_sdf_string function

 25 28  0  0  0  0  0  0  0  0999 V2000
   13.1533   -5.2399   21.0682 C   0  0  0  0  0  0  0  0  0  0  0  0
   10.4729   -4.0295   17.6135 C   0  0  0  0  0  0  0  0  0  0  0  0
   10.4789   -4.3641   20.9564 C   0  0  0  0  0  0  0  0  0  0  0  0
    8.7421   -5.1412   16.3650 C   0  0  0  0  0  0  0  0  0  0  0  0
   11.4353   -2.9204   17.8044 C   0  0  0  0  0  0  0  0  0  0  0  0
   11.1529   -4.3028   22.1277 C   0  0  0  0  0  0  0  0  0  0  0  0
   11.1290   -4.8502   19.8052 C   0  0  0  0  0  0  0  0  0  0  0  0
   12.4329   -4.2159   24.4224 C   0  0  0  0  0  0  0  0  0  0  0  0
    3.4740   -9.0387   16.5022 C   0  0  0  0  0  0  0  0  0  0  0  0
    6.8384   -7.9290   17.5282 N   0  0  0  0  0  0  0  0  0  0  0  0
    9.4126   -5.9853   18.4899 C   0  0  0  0  0  0  0  0  0  0  0  0
    4.2064  -10.3242   18.3302 C   0  0  0  0  0  0  0  0  0  0  0  0
    9.6599   -4.1551   16.4796 N   0  0  0  0  0  0  0  0  0  0  0  0
    7.0644   -6.4612   15.7375 N   0  0  0  0  0  0  0  0  0  0  0  0
    5.3549   -9.6322   18.3190 C   0  0  0  0  0  0  0  0  0  0  0  0
   10.3704   -4.9638   18.6510 C   0  0  0  0  0  0  0  0  0  0  0  0
    5.5935   -8.6419   17.4234 C   0  0  0  0  0  0  0  0  0  0  0  0
   13.0726   -4.6648   23.3394 O   0  0  0  0  0  0  0  0  0  0  0  0
    8.5955   -6.0705   17.3996 C   0  0  0  0  0  0  0  0  0  0  0  0
    4.6223   -8.3832   16.5030 C   0  0  0  0  0  0  0  0  0  0  0  0
   12.4690   -5.2624   19.9024 C   0  0  0  0  0  0  0  0  0  0  0  0
    3.2548   -9.9919   17.4189 C   0  0  0  0  0  0  0  0  0  0  0  0
   12.4767   -4.7393   22.1790 C   0  0  0  0  0  0  0  0  0  0  0  0
    7.8593   -5.3772   15.3569 N   0  0  0  0  0  0  0  0  0  0  0  0
    7.4412   -6.9038   16.9283 C   0  0  0  0  0  0  0  0  0  0  0  0
  1 21  4  0
  1 23  4  0
  2  5  1  0
  2 13  4  0
  2 16  4  0
  3  6  4  0
  3  7  4  0
  4 13  4  0
  4 19  4  0
  4 24  4  0
  6 23  4  0
  7 16  1  0
  7 21  4  0
  8 18  1  0
  9 20  4  0
  9 22  4  0
 10 17  1  0
 10 25  1  0
 11 16  4  0
 11 19  4  0
 12 15  4  0
 12 22  4  0
 14 24  4  0
 14 25  4  0
 15 17  4  0
 17 20  4  0
 18 23  1  0
 19 25  4  0
M  END
$$$$

 Created by Python create_sdf_string function

 25 28  0  0  0  0  0  0  0  0999 V2000
   13.1533   -5.2399   21.0682 C   0  0  0  0  0  0  0  0  0  0  0  0
   10.4729   -4.0295   17.6135 C   0  0  0  0  0  0  0  0  0  0  0  0
   10.4789   -4.3641   20.9564 C   0  0  0  0  0  0  0  0  0  0  0  0
    8.7421   -5.1412   16.3650 C   0  0  0  0  0  0  0  0  0  0  0  0
   11.4353   -2.9204   17.8044 C   0  0  0  0  0  0  0  0  0  0  0  0
   11.1529   -4.3028   22.1277 C   0  0  0  0  0  0  0  0  0  0  0  0
   11.1290   -4.8502   19.8052 C   0  0  0  0  0  0  0  0  0  0  0  0
   12.4329   -4.2159   24.4224 C   0  0  0  0  0  0  0  0  0  0  0  0
    3.4740   -9.0387   16.5022 C   0  0  0  0  0  0  0  0  0  0  0  0
    6.8384   -7.9290   17.5282 N   0  0  0  0  0  0  0  0  0  0  0  0
    9.4126   -5.9853   18.4899 C   0  0  0  0  0  0  0  0  0  0  0  0
    4.2064  -10.3242   18.3302 C   0  0  0  0  0  0  0  0  0  0  0  0
    9.6599   -4.1551   16.4796 N   0  0  0  0  0  0  0  0  0  0  0  0
    7.0644   -6.4612   15.7375 N   0  0  0  0  0  0  0  0  0  0  0  0
    5.3549   -9.6322   18.3190 C   0  0  0  0  0  0  0  0  0  0  0  0
   10.3704   -4.9638   18.6510 C   0  0  0  0  0  0  0  0  0  0  0  0
    5.5935   -8.6419   17.4234 C   0  0  0  0  0  0  0  0  0  0  0  0
   13.0726   -4.6648   23.3394 O   0  0  0  0  0  0  0  0  0  0  0  0
    8.5955   -6.0705   17.3996 C   0  0  0  0  0  0  0  0  0  0  0  0
    4.6223   -8.3832   16.5030 C   0  0  0  0  0  0  0  0  0  0  0  0
   12.4690   -5.2624   19.9024 C   0  0  0  0  0  0  0  0  0  0  0  0
    3.2548   -9.9919   17.4189 C   0  0  0  0  0  0  0  0  0  0  0  0
   12.4767   -4.7393   22.1790 C   0  0  0  0  0  0  0  0  0  0  0  0
    7.8593   -5.3772   15.3569 N   0  0  0  0  0  0  0  0  0  0  0  0
    7.4412   -6.9038   16.9283 C   0  0  0  0  0  0  0  0  0  0  0  0
  1 21  4  0
  1 23  4  0
  2  5  1  0
  2 13  4  0
  2 16  4  0
  3  6  4  0
  3  7  4  0
  4 13  4  0
  4 19  4  0
  4 24  4  0
  6 23  4  0
  7 16  1  0
  7 21  4  0
  8 18  1  0
  9 20  4  0
  9 22  4  0
 10 17  1  0
 10 25  1  0
 11 16  4  0
 11 19  4  0
 12 15  4  0
 12 22  4  0
 14 24  4  0
 14 25  4  0
 15 17  4  0
 17 20  4  0
 18 23  1  0
 19 25  4  0
M  END
$$$$

 Created by Python create_sdf_string function

 25 28  0  0  0  0  0  0  0  0999 V2000
   13.1533   -5.2399   21.0682 C   0  0  0  0  0  0  0  0  0  0  0  0
   10.4729   -4.0295   17.6135 C   0  0  0  0  0  0  0  0  0  0  0  0
   10.4789   -4.3641   20.9564 C   0  0  0  0  0  0  0  0  0  0  0  0
    8.7421   -5.1412   16.3650 C   0  0  0  0  0  0  0  0  0  0  0  0
   11.4353   -2.9204   17.8044 C   0  0  0  0  0  0  0  0  0  0  0  0
   11.1529   -4.3028   22.1277 C   0  0  0  0  0  0  0  0  0  0  0  0
   11.1290   -4.8502   19.8052 C   0  0  0  0  0  0  0  0  0  0  0  0
   12.4329   -4.2159   24.4224 C   0  0  0  0  0  0  0  0  0  0  0  0
    3.4740   -9.0387   16.5022 C   0  0  0  0  0  0  0  0  0  0  0  0
    6.8384   -7.9290   17.5282 N   0  0  0  0  0  0  0  0  0  0  0  0
    9.4126   -5.9853   18.4899 C   0  0  0  0  0  0  0  0  0  0  0  0
    4.2064  -10.3242   18.3302 C   0  0  0  0  0  0  0  0  0  0  0  0
    9.6599   -4.1551   16.4796 N   0  0  0  0  0  0  0  0  0  0  0  0
    7.0644   -6.4612   15.7375 N   0  0  0  0  0  0  0  0  0  0  0  0
    5.3549   -9.6322   18.3190 C   0  0  0  0  0  0  0  0  0  0  0  0
   10.3704   -4.9638   18.6510 C   0  0  0  0  0  0  0  0  0  0  0  0
    5.5935   -8.6419   17.4234 C   0  0  0  0  0  0  0  0  0  0  0  0
   13.0726   -4.6648   23.3394 O   0  0  0  0  0  0  0  0  0  0  0  0
    8.5955   -6.0705   17.3996 C   0  0  0  0  0  0  0  0  0  0  0  0
    4.6223   -8.3832   16.5030 C   0  0  0  0  0  0  0  0  0  0  0  0
   12.4690   -5.2624   19.9024 C   0  0  0  0  0  0  0  0  0  0  0  0
    3.2548   -9.9919   17.4189 C   0  0  0  0  0  0  0  0  0  0  0  0
   12.4767   -4.7393   22.1790 C   0  0  0  0  0  0  0  0  0  0  0  0
    7.8593   -5.3772   15.3569 N   0  0  0  0  0  0  0  0  0  0  0  0
    7.4412   -6.9038   16.9283 C   0  0  0  0  0  0  0  0  0  0  0  0
  1 21  4  0
  1 23  4  0
  2  5  1  0
  2 13  4  0
  2 16  4  0
  3  6  4  0
  3  7  4  0
  4 13  4  0
  4 19  4  0
  4 24  4  0
  6 23  4  0
  7 16  1  0
  7 21  4  0
  8 18  1  0
  9 20  4  0
  9 22  4  0
 10 17  1  0
 10 25  1  0
 11 16  4  0
 11 19  4  0
 12 15  4  0
 12 22  4  0
 14 24  4  0
 14 25  4  0
 15 17  4  0
 17 20  4  0
 18 23  1  0
 19 25  4  0
M  END
$$$$

 Created by Python create_sdf_string function

 25 28  0  0  0  0  0  0  0  0999 V2000
   13.1533   -5.2399   21.0682 C   0  0  0  0  0  0  0  0  0  0  0  0
   10.4729   -4.0295   17.6135 C   0  0  0  0  0  0  0  0  0  0  0  0
   10.4789   -4.3641   20.9564 C   0  0  0  0  0  0  0  0  0  0  0  0
    8.7421   -5.1412   16.3650 C   0  0  0  0  0  0  0  0  0  0  0  0
   11.4353   -2.9204   17.8044 C   0  0  0  0  0  0  0  0  0  0  0  0
   11.1529   -4.3028   22.1277 C   0  0  0  0  0  0  0  0  0  0  0  0
   11.1290   -4.8502   19.8052 C   0  0  0  0  0  0  0  0  0  0  0  0
   12.4329   -4.2159   24.4224 C   0  0  0  0  0  0  0  0  0  0  0  0
    3.4740   -9.0387   16.5022 C   0  0  0  0  0  0  0  0  0  0  0  0
    6.8384   -7.9290   17.5282 N   0  0  0  0  0  0  0  0  0  0  0  0
    9.4126   -5.9853   18.4899 C   0  0  0  0  0  0  0  0  0  0  0  0
    4.2064  -10.3242   18.3302 C   0  0  0  0  0  0  0  0  0  0  0  0
    9.6599   -4.1551   16.4796 N   0  0  0  0  0  0  0  0  0  0  0  0
    7.0644   -6.4612   15.7375 N   0  0  0  0  0  0  0  0  0  0  0  0
    5.3549   -9.6322   18.3190 C   0  0  0  0  0  0  0  0  0  0  0  0
   10.3704   -4.9638   18.6510 C   0  0  0  0  0  0  0  0  0  0  0  0
    5.5935   -8.6419   17.4234 C   0  0  0  0  0  0  0  0  0  0  0  0
   13.0726   -4.6648   23.3394 O   0  0  0  0  0  0  0  0  0  0  0  0
    8.5955   -6.0705   17.3996 C   0  0  0  0  0  0  0  0  0  0  0  0
    4.6223   -8.3832   16.5030 C   0  0  0  0  0  0  0  0  0  0  0  0
   12.4690   -5.2624   19.9024 C   0  0  0  0  0  0  0  0  0  0  0  0
    3.2548   -9.9919   17.4189 C   0  0  0  0  0  0  0  0  0  0  0  0
   12.4767   -4.7393   22.1790 C   0  0  0  0  0  0  0  0  0  0  0  0
    7.8593   -5.3772   15.3569 N   0  0  0  0  0  0  0  0  0  0  0  0
    7.4412   -6.9038   16.9283 C   0  0  0  0  0  0  0  0  0  0  0  0
  1 21  4  0
  1 23  4  0
  2  5  1  0
  2 13  4  0
  2 16  4  0
  3  6  4  0
  3  7  4  0
  4 13  4  0
  4 19  4  0
  4 24  4  0
  6 23  4  0
  7 16  1  0
  7 21  4  0
  8 18  1  0
  9 20  4  0
  9 22  4  0
 10 17  1  0
 10 25  1  0
 11 16  4  0
 11 19  4  0
 12 15  4  0
 12 22  4  0
 14 24  4  0
 14 25  4  0
 15 17  4  0
 17 20  4  0
 18 23  1  0
 19 25  4  0
M  END
$$$$

 Created by Python create_sdf_string function

 25 28  0  0  0  0  0  0  0  0999 V2000
   13.1533   -5.2399   21.0682 C   0  0  0  0  0  0  0  0  0  0  0  0
   10.4729   -4.0295   17.6135 C   0  0  0  0  0  0  0  0  0  0  0  0
   10.4789   -4.3641   20.9564 C   0  0  0  0  0  0  0  0  0  0  0  0
    8.7421   -5.1412   16.3650 C   0  0  0  0  0  0  0  0  0  0  0  0
   11.4353   -2.9204   17.8044 C   0  0  0  0  0  0  0  0  0  0  0  0
   11.1529   -4.3028   22.1277 C   0  0  0  0  0  0  0  0  0  0  0  0
   11.1290   -4.8502   19.8052 C   0  0  0  0  0  0  0  0  0  0  0  0
   12.4329   -4.2159   24.4224 C   0  0  0  0  0  0  0  0  0  0  0  0
    3.4740   -9.0387   16.5022 C   0  0  0  0  0  0  0  0  0  0  0  0
    6.8384   -7.9290   17.5282 N   0  0  0  0  0  0  0  0  0  0  0  0
    9.4126   -5.9853   18.4899 C   0  0  0  0  0  0  0  0  0  0  0  0
    4.2064  -10.3242   18.3302 C   0  0  0  0  0  0  0  0  0  0  0  0
    9.6599   -4.1551   16.4796 N   0  0  0  0  0  0  0  0  0  0  0  0
    7.0644   -6.4612   15.7375 N   0  0  0  0  0  0  0  0  0  0  0  0
    5.3549   -9.6322   18.3190 C   0  0  0  0  0  0  0  0  0  0  0  0
   10.3704   -4.9638   18.6510 C   0  0  0  0  0  0  0  0  0  0  0  0
    5.5935   -8.6419   17.4234 C   0  0  0  0  0  0  0  0  0  0  0  0
   13.0726   -4.6648   23.3394 O   0  0  0  0  0  0  0  0  0  0  0  0
    8.5955   -6.0705   17.3996 C   0  0  0  0  0  0  0  0  0  0  0  0
    4.6223   -8.3832   16.5030 C   0  0  0  0  0  0  0  0  0  0  0  0
   12.4690   -5.2624   19.9024 C   0  0  0  0  0  0  0  0  0  0  0  0
    3.2548   -9.9919   17.4189 C   0  0  0  0  0  0  0  0  0  0  0  0
   12.4767   -4.7393   22.1790 C   0  0  0  0  0  0  0  0  0  0  0  0
    7.8593   -5.3772   15.3569 N   0  0  0  0  0  0  0  0  0  0  0  0
    7.4412   -6.9038   16.9283 C   0  0  0  0  0  0  0  0  0  0  0  0
  1 21  4  0
  1 23  4  0
  2  5  1  0
  2 13  4  0
  2 16  4  0
  3  6  4  0
  3  7  4  0
  4 13  4  0
  4 19  4  0
  4 24  4  0
  6 23  4  0
  7 16  1  0
  7 21  4  0
  8 18  1  0
  9 20  4  0
  9 22  4  0
 10 17  1  0
 10 25  1  0
 11 16  4  0
 11 19  4  0
 12 15  4  0
 12 22  4  0
 14 24  4  0
 14 25  4  0
 15 17  4  0
 17 20  4  0
 18 23  1  0
 19 25  4  0
M  END
$$$$

 Created by Python create_sdf_string function

 25 28  0  0  0  0  0  0  0  0999 V2000
   13.1533   -5.2399   21.0682 C   0  0  0  0  0  0  0  0  0  0  0  0
   10.4729   -4.0295   17.6135 C   0  0  0  0  0  0  0  0  0  0  0  0
   10.4789   -4.3641   20.9564 C   0  0  0  0  0  0  0  0  0  0  0  0
    8.7421   -5.1412   16.3650 C   0  0  0  0  0  0  0  0  0  0  0  0
   11.4353   -2.9204   17.8044 C   0  0  0  0  0  0  0  0  0  0  0  0
   11.1529   -4.3028   22.1277 C   0  0  0  0  0  0  0  0  0  0  0  0
   11.1290   -4.8502   19.8052 C   0  0  0  0  0  0  0  0  0  0  0  0
   12.4329   -4.2159   24.4224 C   0  0  0  0  0  0  0  0  0  0  0  0
    3.4740   -9.0387   16.5022 C   0  0  0  0  0  0  0  0  0  0  0  0
    6.8384   -7.9290   17.5282 N   0  0  0  0  0  0  0  0  0  0  0  0
    9.4126   -5.9853   18.4899 C   0  0  0  0  0  0  0  0  0  0  0  0
    4.2064  -10.3242   18.3302 C   0  0  0  0  0  0  0  0  0  0  0  0
    9.6599   -4.1551   16.4796 N   0  0  0  0  0  0  0  0  0  0  0  0
    7.0644   -6.4612   15.7375 N   0  0  0  0  0  0  0  0  0  0  0  0
    5.3549   -9.6322   18.3190 C   0  0  0  0  0  0  0  0  0  0  0  0
   10.3704   -4.9638   18.6510 C   0  0  0  0  0  0  0  0  0  0  0  0
    5.5935   -8.6419   17.4234 C   0  0  0  0  0  0  0  0  0  0  0  0
   13.0726   -4.6648   23.3394 O   0  0  0  0  0  0  0  0  0  0  0  0
    8.5955   -6.0705   17.3996 C   0  0  0  0  0  0  0  0  0  0  0  0
    4.6223   -8.3832   16.5030 C   0  0  0  0  0  0  0  0  0  0  0  0
   12.4690   -5.2624   19.9024 C   0  0  0  0  0  0  0  0  0  0  0  0
    3.2548   -9.9919   17.4189 C   0  0  0  0  0  0  0  0  0  0  0  0
   12.4767   -4.7393   22.1790 C   0  0  0  0  0  0  0  0  0  0  0  0
    7.8593   -5.3772   15.3569 N   0  0  0  0  0  0  0  0  0  0  0  0
    7.4412   -6.9038   16.9283 C   0  0  0  0  0  0  0  0  0  0  0  0
  1 21  4  0
  1 23  4  0
  2  5  1  0
  2 13  4  0
  2 16  4  0
  3  6  4  0
  3  7  4  0
  4 13  4  0
  4 19  4  0
  4 24  4  0
  6 23  4  0
  7 16  1  0
  7 21  4  0
  8 18  1  0
  9 20  4  0
  9 22  4  0
 10 17  1  0
 10 25  1  0
 11 16  4  0
 11 19  4  0
 12 15  4  0
 12 22  4  0
 14 24  4  0
 14 25  4  0
 15 17  4  0
 17 20  4  0
 18 23  1  0
 19 25  4  0
M  END
$$$$

 Created by Python create_sdf_string function

 25 28  0  0  0  0  0  0  0  0999 V2000
   13.1533   -5.2399   21.0682 C   0  0  0  0  0  0  0  0  0  0  0  0
   10.4729   -4.0295   17.6135 C   0  0  0  0  0  0  0  0  0  0  0  0
   10.4789   -4.3641   20.9564 C   0  0  0  0  0  0  0  0  0  0  0  0
    8.7421   -5.1412   16.3650 C   0  0  0  0  0  0  0  0  0  0  0  0
   11.4353   -2.9204   17.8044 C   0  0  0  0  0  0  0  0  0  0  0  0
   11.1529   -4.3028   22.1277 C   0  0  0  0  0  0  0  0  0  0  0  0
   11.1290   -4.8502   19.8052 C   0  0  0  0  0  0  0  0  0  0  0  0
   12.4329   -4.2159   24.4224 C   0  0  0  0  0  0  0  0  0  0  0  0
    3.4740   -9.0387   16.5022 C   0  0  0  0  0  0  0  0  0  0  0  0
    6.8384   -7.9290   17.5282 N   0  0  0  0  0  0  0  0  0  0  0  0
    9.4126   -5.9853   18.4899 C   0  0  0  0  0  0  0  0  0  0  0  0
    4.2064  -10.3242   18.3302 C   0  0  0  0  0  0  0  0  0  0  0  0
    9.6599   -4.1551   16.4796 N   0  0  0  0  0  0  0  0  0  0  0  0
    7.0644   -6.4612   15.7375 N   0  0  0  0  0  0  0  0  0  0  0  0
    5.3549   -9.6322   18.3190 C   0  0  0  0  0  0  0  0  0  0  0  0
   10.3704   -4.9638   18.6510 C   0  0  0  0  0  0  0  0  0  0  0  0
    5.5935   -8.6419   17.4234 C   0  0  0  0  0  0  0  0  0  0  0  0
   13.0726   -4.6648   23.3394 O   0  0  0  0  0  0  0  0  0  0  0  0
    8.5955   -6.0705   17.3996 C   0  0  0  0  0  0  0  0  0  0  0  0
    4.6223   -8.3832   16.5030 C   0  0  0  0  0  0  0  0  0  0  0  0
   12.4690   -5.2624   19.9024 C   0  0  0  0  0  0  0  0  0  0  0  0
    3.2548   -9.9919   17.4189 C   0  0  0  0  0  0  0  0  0  0  0  0
   12.4767   -4.7393   22.1790 C   0  0  0  0  0  0  0  0  0  0  0  0
    7.8593   -5.3772   15.3569 N   0  0  0  0  0  0  0  0  0  0  0  0
    7.4412   -6.9038   16.9283 C   0  0  0  0  0  0  0  0  0  0  0  0
  1 21  4  0
  1 23  4  0
  2  5  1  0
  2 13  4  0
  2 16  4  0
  3  6  4  0
  3  7  4  0
  4 13  4  0
  4 19  4  0
  4 24  4  0
  6 23  4  0
  7 16  1  0
  7 21  4  0
  8 18  1  0
  9 20  4  0
  9 22  4  0
 10 17  1  0
 10 25  1  0
 11 16  4  0
 11 19  4  0
 12 15  4  0
 12 22  4  0
 14 24  4  0
 14 25  4  0
 15 17  4  0
 17 20  4  0
 18 23  1  0
 19 25  4  0
M  END
$$$$

 Created by Python create_sdf_string function

 25 28  0  0  0  0  0  0  0  0999 V2000
   13.1533   -5.2399   21.0682 C   0  0  0  0  0  0  0  0  0  0  0  0
   10.4729   -4.0295   17.6135 C   0  0  0  0  0  0  0  0  0  0  0  0
   10.4789   -4.3641   20.9564 C   0  0  0  0  0  0  0  0  0  0  0  0
    8.7421   -5.1412   16.3650 C   0  0  0  0  0  0  0  0  0  0  0  0
   11.4353   -2.9204   17.8044 C   0  0  0  0  0  0  0  0  0  0  0  0
   11.1529   -4.3028   22.1277 C   0  0  0  0  0  0  0  0  0  0  0  0
   11.1290   -4.8502   19.8052 C   0  0  0  0  0  0  0  0  0  0  0  0
   12.4329   -4.2159   24.4224 C   0  0  0  0  0  0  0  0  0  0  0  0
    3.4740   -9.0387   16.5022 C   0  0  0  0  0  0  0  0  0  0  0  0
    6.8384   -7.9290   17.5282 N   0  0  0  0  0  0  0  0  0  0  0  0
    9.4126   -5.9853   18.4899 C   0  0  0  0  0  0  0  0  0  0  0  0
    4.2064  -10.3242   18.3302 C   0  0  0  0  0  0  0  0  0  0  0  0
    9.6599   -4.1551   16.4796 N   0  0  0  0  0  0  0  0  0  0  0  0
    7.0644   -6.4612   15.7375 N   0  0  0  0  0  0  0  0  0  0  0  0
    5.3549   -9.6322   18.3190 C   0  0  0  0  0  0  0  0  0  0  0  0
   10.3704   -4.9638   18.6510 C   0  0  0  0  0  0  0  0  0  0  0  0
    5.5935   -8.6419   17.4234 C   0  0  0  0  0  0  0  0  0  0  0  0
   13.0726   -4.6648   23.3394 O   0  0  0  0  0  0  0  0  0  0  0  0
    8.5955   -6.0705   17.3996 C   0  0  0  0  0  0  0  0  0  0  0  0
    4.6223   -8.3832   16.5030 C   0  0  0  0  0  0  0  0  0  0  0  0
   12.4690   -5.2624   19.9024 C   0  0  0  0  0  0  0  0  0  0  0  0
    3.2548   -9.9919   17.4189 C   0  0  0  0  0  0  0  0  0  0  0  0
   12.4767   -4.7393   22.1790 C   0  0  0  0  0  0  0  0  0  0  0  0
    7.8593   -5.3772   15.3569 N   0  0  0  0  0  0  0  0  0  0  0  0
    7.4412   -6.9038   16.9283 C   0  0  0  0  0  0  0  0  0  0  0  0
  1 21  4  0
  1 23  4  0
  2  5  1  0
  2 13  4  0
  2 16  4  0
  3  6  4  0
  3  7  4  0
  4 13  4  0
  4 19  4  0
  4 24  4  0
  6 23  4  0
  7 16  1  0
  7 21  4  0
  8 18  1  0
  9 20  4  0
  9 22  4  0
 10 17  1  0
 10 25  1  0
 11 16  4  0
 11 19  4  0
 12 15  4  0
 12 22  4  0
 14 24  4  0
 14 25  4  0
 15 17  4  0
 17 20  4  0
 18 23  1  0
 19 25  4  0
M  END
$$$$

 Created by Python create_sdf_string function

 25 28  0  0  0  0  0  0  0  0999 V2000
   13.1533   -5.2399   21.0682 C   0  0  0  0  0  0  0  0  0  0  0  0
   10.4729   -4.0295   17.6135 C   0  0  0  0  0  0  0  0  0  0  0  0
   10.4789   -4.3641   20.9564 C   0  0  0  0  0  0  0  0  0  0  0  0
    8.7421   -5.1412   16.3650 C   0  0  0  0  0  0  0  0  0  0  0  0
   11.4353   -2.9204   17.8044 C   0  0  0  0  0  0  0  0  0  0  0  0
   11.1529   -4.3028   22.1277 C   0  0  0  0  0  0  0  0  0  0  0  0
   11.1290   -4.8502   19.8052 C   0  0  0  0  0  0  0  0  0  0  0  0
   12.4329   -4.2159   24.4224 C   0  0  0  0  0  0  0  0  0  0  0  0
    3.4740   -9.0387   16.5022 C   0  0  0  0  0  0  0  0  0  0  0  0
    6.8384   -7.9290   17.5282 N   0  0  0  0  0  0  0  0  0  0  0  0
    9.4126   -5.9853   18.4899 C   0  0  0  0  0  0  0  0  0  0  0  0
    4.2064  -10.3242   18.3302 C   0  0  0  0  0  0  0  0  0  0  0  0
    9.6599   -4.1551   16.4796 N   0  0  0  0  0  0  0  0  0  0  0  0
    7.0644   -6.4612   15.7375 N   0  0  0  0  0  0  0  0  0  0  0  0
    5.3549   -9.6322   18.3190 C   0  0  0  0  0  0  0  0  0  0  0  0
   10.3704   -4.9638   18.6510 C   0  0  0  0  0  0  0  0  0  0  0  0
    5.5935   -8.6419   17.4234 C   0  0  0  0  0  0  0  0  0  0  0  0
   13.0726   -4.6648   23.3394 O   0  0  0  0  0  0  0  0  0  0  0  0
    8.5955   -6.0705   17.3996 C   0  0  0  0  0  0  0  0  0  0  0  0
    4.6223   -8.3832   16.5030 C   0  0  0  0  0  0  0  0  0  0  0  0
   12.4690   -5.2624   19.9024 C   0  0  0  0  0  0  0  0  0  0  0  0
    3.2548   -9.9919   17.4189 C   0  0  0  0  0  0  0  0  0  0  0  0
   12.4767   -4.7393   22.1790 C   0  0  0  0  0  0  0  0  0  0  0  0
    7.8593   -5.3772   15.3569 N   0  0  0  0  0  0  0  0  0  0  0  0
    7.4412   -6.9038   16.9283 C   0  0  0  0  0  0  0  0  0  0  0  0
  1 21  4  0
  1 23  4  0
  2  5  1  0
  2 13  4  0
  2 16  4  0
  3  6  4  0
  3  7  4  0
  4 13  4  0
  4 19  4  0
  4 24  4  0
  6 23  4  0
  7 16  1  0
  7 21  4  0
  8 18  1  0
  9 20  4  0
  9 22  4  0
 10 17  1  0
 10 25  1  0
 11 16  4  0
 11 19  4  0
 12 15  4  0
 12 22  4  0
 14 24  4  0
 14 25  4  0
 15 17  4  0
 17 20  4  0
 18 23  1  0
 19 25  4  0
M  END
$$$$

 Created by Python create_sdf_string function

 25 28  0  0  0  0  0  0  0  0999 V2000
   13.1533   -5.2399   21.0682 C   0  0  0  0  0  0  0  0  0  0  0  0
   10.4729   -4.0295   17.6135 C   0  0  0  0  0  0  0  0  0  0  0  0
   10.4789   -4.3641   20.9564 C   0  0  0  0  0  0  0  0  0  0  0  0
    8.7421   -5.1412   16.3650 C   0  0  0  0  0  0  0  0  0  0  0  0
   11.4353   -2.9204   17.8044 C   0  0  0  0  0  0  0  0  0  0  0  0
   11.1529   -4.3028   22.1277 C   0  0  0  0  0  0  0  0  0  0  0  0
   11.1290   -4.8502   19.8052 C   0  0  0  0  0  0  0  0  0  0  0  0
   12.4329   -4.2159   24.4224 C   0  0  0  0  0  0  0  0  0  0  0  0
    3.4740   -9.0387   16.5022 C   0  0  0  0  0  0  0  0  0  0  0  0
    6.8384   -7.9290   17.5282 N   0  0  0  0  0  0  0  0  0  0  0  0
    9.4126   -5.9853   18.4899 C   0  0  0  0  0  0  0  0  0  0  0  0
    4.2064  -10.3242   18.3302 C   0  0  0  0  0  0  0  0  0  0  0  0
    9.6599   -4.1551   16.4796 N   0  0  0  0  0  0  0  0  0  0  0  0
    7.0644   -6.4612   15.7375 N   0  0  0  0  0  0  0  0  0  0  0  0
    5.3549   -9.6322   18.3190 C   0  0  0  0  0  0  0  0  0  0  0  0
   10.3704   -4.9638   18.6510 C   0  0  0  0  0  0  0  0  0  0  0  0
    5.5935   -8.6419   17.4234 C   0  0  0  0  0  0  0  0  0  0  0  0
   13.0726   -4.6648   23.3394 O   0  0  0  0  0  0  0  0  0  0  0  0
    8.5955   -6.0705   17.3996 C   0  0  0  0  0  0  0  0  0  0  0  0
    4.6223   -8.3832   16.5030 C   0  0  0  0  0  0  0  0  0  0  0  0
   12.4690   -5.2624   19.9024 C   0  0  0  0  0  0  0  0  0  0  0  0
    3.2548   -9.9919   17.4189 C   0  0  0  0  0  0  0  0  0  0  0  0
   12.4767   -4.7393   22.1790 C   0  0  0  0  0  0  0  0  0  0  0  0
    7.8593   -5.3772   15.3569 N   0  0  0  0  0  0  0  0  0  0  0  0
    7.4412   -6.9038   16.9283 C   0  0  0  0  0  0  0  0  0  0  0  0
  1 21  4  0
  1 23  4  0
  2  5  1  0
  2 13  4  0
  2 16  4  0
  3  6  4  0
  3  7  4  0
  4 13  4  0
  4 19  4  0
  4 24  4  0
  6 23  4  0
  7 16  1  0
  7 21  4  0
  8 18  1  0
  9 20  4  0
  9 22  4  0
 10 17  1  0
 10 25  1  0
 11 16  4  0
 11 19  4  0
 12 15  4  0
 12 22  4  0
 14 24  4  0
 14 25  4  0
 15 17  4  0
 17 20  4  0
 18 23  1  0
 19 25  4  0
M  END
$$$$

 Created by Python create_sdf_string function

 25 28  0  0  0  0  0  0  0  0999 V2000
   13.1533   -5.2399   21.0682 C   0  0  0  0  0  0  0  0  0  0  0  0
   10.4729   -4.0295   17.6135 C   0  0  0  0  0  0  0  0  0  0  0  0
   10.4789   -4.3641   20.9564 C   0  0  0  0  0  0  0  0  0  0  0  0
    8.7421   -5.1412   16.3650 C   0  0  0  0  0  0  0  0  0  0  0  0
   11.4353   -2.9204   17.8044 C   0  0  0  0  0  0  0  0  0  0  0  0
   11.1529   -4.3028   22.1277 C   0  0  0  0  0  0  0  0  0  0  0  0
   11.1290   -4.8502   19.8052 C   0  0  0  0  0  0  0  0  0  0  0  0
   12.4329   -4.2159   24.4224 C   0  0  0  0  0  0  0  0  0  0  0  0
    3.4740   -9.0387   16.5022 C   0  0  0  0  0  0  0  0  0  0  0  0
    6.8384   -7.9290   17.5282 N   0  0  0  0  0  0  0  0  0  0  0  0
    9.4126   -5.9853   18.4899 C   0  0  0  0  0  0  0  0  0  0  0  0
    4.2064  -10.3242   18.3302 C   0  0  0  0  0  0  0  0  0  0  0  0
    9.6599   -4.1551   16.4796 N   0  0  0  0  0  0  0  0  0  0  0  0
    7.0644   -6.4612   15.7375 N   0  0  0  0  0  0  0  0  0  0  0  0
    5.3549   -9.6322   18.3190 C   0  0  0  0  0  0  0  0  0  0  0  0
   10.3704   -4.9638   18.6510 C   0  0  0  0  0  0  0  0  0  0  0  0
    5.5935   -8.6419   17.4234 C   0  0  0  0  0  0  0  0  0  0  0  0
   13.0726   -4.6648   23.3394 O   0  0  0  0  0  0  0  0  0  0  0  0
    8.5955   -6.0705   17.3996 C   0  0  0  0  0  0  0  0  0  0  0  0
    4.6223   -8.3832   16.5030 C   0  0  0  0  0  0  0  0  0  0  0  0
   12.4690   -5.2624   19.9024 C   0  0  0  0  0  0  0  0  0  0  0  0
    3.2548   -9.9919   17.4189 C   0  0  0  0  0  0  0  0  0  0  0  0
   12.4767   -4.7393   22.1790 C   0  0  0  0  0  0  0  0  0  0  0  0
    7.8593   -5.3772   15.3569 N   0  0  0  0  0  0  0  0  0  0  0  0
    7.4412   -6.9038   16.9283 C   0  0  0  0  0  0  0  0  0  0  0  0
  1 21  4  0
  1 23  4  0
  2  5  1  0
  2 13  4  0
  2 16  4  0
  3  6  4  0
  3  7  4  0
  4 13  4  0
  4 19  4  0
  4 24  4  0
  6 23  4  0
  7 16  1  0
  7 21  4  0
  8 18  1  0
  9 20  4  0
  9 22  4  0
 10 17  1  0
 10 25  1  0
 11 16  4  0
 11 19  4  0
 12 15  4  0
 12 22  4  0
 14 24  4  0
 14 25  4  0
 15 17  4  0
 17 20  4  0
 18 23  1  0
 19 25  4  0
M  END
$$$$

 Created by Python create_sdf_string function

 25 28  0  0  0  0  0  0  0  0999 V2000
   13.1533   -5.2399   21.0682 C   0  0  0  0  0  0  0  0  0  0  0  0
   10.4729   -4.0295   17.6135 C   0  0  0  0  0  0  0  0  0  0  0  0
   10.4789   -4.3641   20.9564 C   0  0  0  0  0  0  0  0  0  0  0  0
    8.7421   -5.1412   16.3650 C   0  0  0  0  0  0  0  0  0  0  0  0
   11.4353   -2.9204   17.8044 C   0  0  0  0  0  0  0  0  0  0  0  0
   11.1529   -4.3028   22.1277 C   0  0  0  0  0  0  0  0  0  0  0  0
   11.1290   -4.8502   19.8052 C   0  0  0  0  0  0  0  0  0  0  0  0
   12.4329   -4.2159   24.4224 C   0  0  0  0  0  0  0  0  0  0  0  0
    3.4740   -9.0387   16.5022 C   0  0  0  0  0  0  0  0  0  0  0  0
    6.8384   -7.9290   17.5282 N   0  0  0  0  0  0  0  0  0  0  0  0
    9.4126   -5.9853   18.4899 C   0  0  0  0  0  0  0  0  0  0  0  0
    4.2064  -10.3242   18.3302 C   0  0  0  0  0  0  0  0  0  0  0  0
    9.6599   -4.1551   16.4796 N   0  0  0  0  0  0  0  0  0  0  0  0
    7.0644   -6.4612   15.7375 N   0  0  0  0  0  0  0  0  0  0  0  0
    5.3549   -9.6322   18.3190 C   0  0  0  0  0  0  0  0  0  0  0  0
   10.3704   -4.9638   18.6510 C   0  0  0  0  0  0  0  0  0  0  0  0
    5.5935   -8.6419   17.4234 C   0  0  0  0  0  0  0  0  0  0  0  0
   13.0726   -4.6648   23.3394 O   0  0  0  0  0  0  0  0  0  0  0  0
    8.5955   -6.0705   17.3996 C   0  0  0  0  0  0  0  0  0  0  0  0
    4.6223   -8.3832   16.5030 C   0  0  0  0  0  0  0  0  0  0  0  0
   12.4690   -5.2624   19.9024 C   0  0  0  0  0  0  0  0  0  0  0  0
    3.2548   -9.9919   17.4189 C   0  0  0  0  0  0  0  0  0  0  0  0
   12.4767   -4.7393   22.1790 C   0  0  0  0  0  0  0  0  0  0  0  0
    7.8593   -5.3772   15.3569 N   0  0  0  0  0  0  0  0  0  0  0  0
    7.4412   -6.9038   16.9283 C   0  0  0  0  0  0  0  0  0  0  0  0
  1 21  4  0
  1 23  4  0
  2  5  1  0
  2 13  4  0
  2 16  4  0
  3  6  4  0
  3  7  4  0
  4 13  4  0
  4 19  4  0
  4 24  4  0
  6 23  4  0
  7 16  1  0
  7 21  4  0
  8 18  1  0
  9 20  4  0
  9 22  4  0
 10 17  1  0
 10 25  1  0
 11 16  4  0
 11 19  4  0
 12 15  4  0
 12 22  4  0
 14 24  4  0
 14 25  4  0
 15 17  4  0
 17 20  4  0
 18 23  1  0
 19 25  4  0
M  END
$$$$

 Created by Python create_sdf_string function

 25 28  0  0  0  0  0  0  0  0999 V2000
   13.1533   -5.2399   21.0682 C   0  0  0  0  0  0  0  0  0  0  0  0
   10.4729   -4.0295   17.6135 C   0  0  0  0  0  0  0  0  0  0  0  0
   10.4789   -4.3641   20.9564 C   0  0  0  0  0  0  0  0  0  0  0  0
    8.7421   -5.1412   16.3650 C   0  0  0  0  0  0  0  0  0  0  0  0
   11.4353   -2.9204   17.8044 C   0  0  0  0  0  0  0  0  0  0  0  0
   11.1529   -4.3028   22.1277 C   0  0  0  0  0  0  0  0  0  0  0  0
   11.1290   -4.8502   19.8052 C   0  0  0  0  0  0  0  0  0  0  0  0
   12.4329   -4.2159   24.4224 C   0  0  0  0  0  0  0  0  0  0  0  0
    3.4740   -9.0387   16.5022 C   0  0  0  0  0  0  0  0  0  0  0  0
    6.8384   -7.9290   17.5282 N   0  0  0  0  0  0  0  0  0  0  0  0
    9.4126   -5.9853   18.4899 C   0  0  0  0  0  0  0  0  0  0  0  0
    4.2064  -10.3242   18.3302 C   0  0  0  0  0  0  0  0  0  0  0  0
    9.6599   -4.1551   16.4796 N   0  0  0  0  0  0  0  0  0  0  0  0
    7.0644   -6.4612   15.7375 N   0  0  0  0  0  0  0  0  0  0  0  0
    5.3549   -9.6322   18.3190 C   0  0  0  0  0  0  0  0  0  0  0  0
   10.3704   -4.9638   18.6510 C   0  0  0  0  0  0  0  0  0  0  0  0
    5.5935   -8.6419   17.4234 C   0  0  0  0  0  0  0  0  0  0  0  0
   13.0726   -4.6648   23.3394 O   0  0  0  0  0  0  0  0  0  0  0  0
    8.5955   -6.0705   17.3996 C   0  0  0  0  0  0  0  0  0  0  0  0
    4.6223   -8.3832   16.5030 C   0  0  0  0  0  0  0  0  0  0  0  0
   12.4690   -5.2624   19.9024 C   0  0  0  0  0  0  0  0  0  0  0  0
    3.2548   -9.9919   17.4189 C   0  0  0  0  0  0  0  0  0  0  0  0
   12.4767   -4.7393   22.1790 C   0  0  0  0  0  0  0  0  0  0  0  0
    7.8593   -5.3772   15.3569 N   0  0  0  0  0  0  0  0  0  0  0  0
    7.4412   -6.9038   16.9283 C   0  0  0  0  0  0  0  0  0  0  0  0
  1 21  4  0
  1 23  4  0
  2  5  1  0
  2 13  4  0
  2 16  4  0
  3  6  4  0
  3  7  4  0
  4 13  4  0
  4 19  4  0
  4 24  4  0
  6 23  4  0
  7 16  1  0
  7 21  4  0
  8 18  1  0
  9 20  4  0
  9 22  4  0
 10 17  1  0
 10 25  1  0
 11 16  4  0
 11 19  4  0
 12 15  4  0
 12 22  4  0
 14 24  4  0
 14 25  4  0
 15 17  4  0
 17 20  4  0
 18 23  1  0
 19 25  4  0
M  END
$$$$

 Created by Python create_sdf_string function

 25 28  0  0  0  0  0  0  0  0999 V2000
   13.1533   -5.2399   21.0682 C   0  0  0  0  0  0  0  0  0  0  0  0
   10.4729   -4.0295   17.6135 C   0  0  0  0  0  0  0  0  0  0  0  0
   10.4789   -4.3641   20.9564 C   0  0  0  0  0  0  0  0  0  0  0  0
    8.7421   -5.1412   16.3650 C   0  0  0  0  0  0  0  0  0  0  0  0
   11.4353   -2.9204   17.8044 C   0  0  0  0  0  0  0  0  0  0  0  0
   11.1529   -4.3028   22.1277 C   0  0  0  0  0  0  0  0  0  0  0  0
   11.1290   -4.8502   19.8052 C   0  0  0  0  0  0  0  0  0  0  0  0
   12.4329   -4.2159   24.4224 C   0  0  0  0  0  0  0  0  0  0  0  0
    3.4740   -9.0387   16.5022 C   0  0  0  0  0  0  0  0  0  0  0  0
    6.8384   -7.9290   17.5282 N   0  0  0  0  0  0  0  0  0  0  0  0
    9.4126   -5.9853   18.4899 C   0  0  0  0  0  0  0  0  0  0  0  0
    4.2064  -10.3242   18.3302 C   0  0  0  0  0  0  0  0  0  0  0  0
    9.6599   -4.1551   16.4796 N   0  0  0  0  0  0  0  0  0  0  0  0
    7.0644   -6.4612   15.7375 N   0  0  0  0  0  0  0  0  0  0  0  0
    5.3549   -9.6322   18.3190 C   0  0  0  0  0  0  0  0  0  0  0  0
   10.3704   -4.9638   18.6510 C   0  0  0  0  0  0  0  0  0  0  0  0
    5.5935   -8.6419   17.4234 C   0  0  0  0  0  0  0  0  0  0  0  0
   13.0726   -4.6648   23.3394 O   0  0  0  0  0  0  0  0  0  0  0  0
    8.5955   -6.0705   17.3996 C   0  0  0  0  0  0  0  0  0  0  0  0
    4.6223   -8.3832   16.5030 C   0  0  0  0  0  0  0  0  0  0  0  0
   12.4690   -5.2624   19.9024 C   0  0  0  0  0  0  0  0  0  0  0  0
    3.2548   -9.9919   17.4189 C   0  0  0  0  0  0  0  0  0  0  0  0
   12.4767   -4.7393   22.1790 C   0  0  0  0  0  0  0  0  0  0  0  0
    7.8593   -5.3772   15.3569 N   0  0  0  0  0  0  0  0  0  0  0  0
    7.4412   -6.9038   16.9283 C   0  0  0  0  0  0  0  0  0  0  0  0
  1 21  4  0
  1 23  4  0
  2  5  1  0
  2 13  4  0
  2 16  4  0
  3  6  4  0
  3  7  4  0
  4 13  4  0
  4 19  4  0
  4 24  4  0
  6 23  4  0
  7 16  1  0
  7 21  4  0
  8 18  1  0
  9 20  4  0
  9 22  4  0
 10 17  1  0
 10 25  1  0
 11 16  4  0
 11 19  4  0
 12 15  4  0
 12 22  4  0
 14 24  4  0
 14 25  4  0
 15 17  4  0
 17 20  4  0
 18 23  1  0
 19 25  4  0
M  END
$$$$

 Created by Python create_sdf_string function

 25 28  0  0  0  0  0  0  0  0999 V2000
   13.1533   -5.2399   21.0682 C   0  0  0  0  0  0  0  0  0  0  0  0
   10.4729   -4.0295   17.6135 C   0  0  0  0  0  0  0  0  0  0  0  0
   10.4789   -4.3641   20.9564 C   0  0  0  0  0  0  0  0  0  0  0  0
    8.7421   -5.1412   16.3650 C   0  0  0  0  0  0  0  0  0  0  0  0
   11.4353   -2.9204   17.8044 C   0  0  0  0  0  0  0  0  0  0  0  0
   11.1529   -4.3028   22.1277 C   0  0  0  0  0  0  0  0  0  0  0  0
   11.1290   -4.8502   19.8052 C   0  0  0  0  0  0  0  0  0  0  0  0
   12.4329   -4.2159   24.4224 C   0  0  0  0  0  0  0  0  0  0  0  0
    3.4740   -9.0387   16.5022 C   0  0  0  0  0  0  0  0  0  0  0  0
    6.8384   -7.9290   17.5282 N   0  0  0  0  0  0  0  0  0  0  0  0
    9.4126   -5.9853   18.4899 C   0  0  0  0  0  0  0  0  0  0  0  0
    4.2064  -10.3242   18.3302 C   0  0  0  0  0  0  0  0  0  0  0  0
    9.6599   -4.1551   16.4796 N   0  0  0  0  0  0  0  0  0  0  0  0
    7.0644   -6.4612   15.7375 N   0  0  0  0  0  0  0  0  0  0  0  0
    5.3549   -9.6322   18.3190 C   0  0  0  0  0  0  0  0  0  0  0  0
   10.3704   -4.9638   18.6510 C   0  0  0  0  0  0  0  0  0  0  0  0
    5.5935   -8.6419   17.4234 C   0  0  0  0  0  0  0  0  0  0  0  0
   13.0726   -4.6648   23.3394 O   0  0  0  0  0  0  0  0  0  0  0  0
    8.5955   -6.0705   17.3996 C   0  0  0  0  0  0  0  0  0  0  0  0
    4.6223   -8.3832   16.5030 C   0  0  0  0  0  0  0  0  0  0  0  0
   12.4690   -5.2624   19.9024 C   0  0  0  0  0  0  0  0  0  0  0  0
    3.2548   -9.9919   17.4189 C   0  0  0  0  0  0  0  0  0  0  0  0
   12.4767   -4.7393   22.1790 C   0  0  0  0  0  0  0  0  0  0  0  0
    7.8593   -5.3772   15.3569 N   0  0  0  0  0  0  0  0  0  0  0  0
    7.4412   -6.9038   16.9283 C   0  0  0  0  0  0  0  0  0  0  0  0
  1 21  4  0
  1 23  4  0
  2  5  1  0
  2 13  4  0
  2 16  4  0
  3  6  4  0
  3  7  4  0
  4 13  4  0
  4 19  4  0
  4 24  4  0
  6 23  4  0
  7 16  1  0
  7 21  4  0
  8 18  1  0
  9 20  4  0
  9 22  4  0
 10 17  1  0
 10 25  1  0
 11 16  4  0
 11 19  4  0
 12 15  4  0
 12 22  4  0
 14 24  4  0
 14 25  4  0
 15 17  4  0
 17 20  4  0
 18 23  1  0
 19 25  4  0
M  END
$$$$

 Created by Python create_sdf_string function

 25 28  0  0  0  0  0  0  0  0999 V2000
   13.1533   -5.2399   21.0682 C   0  0  0  0  0  0  0  0  0  0  0  0
   10.4729   -4.0295   17.6135 C   0  0  0  0  0  0  0  0  0  0  0  0
   10.4789   -4.3641   20.9564 C   0  0  0  0  0  0  0  0  0  0  0  0
    8.7421   -5.1412   16.3650 C   0  0  0  0  0  0  0  0  0  0  0  0
   11.4353   -2.9204   17.8044 C   0  0  0  0  0  0  0  0  0  0  0  0
   11.1529   -4.3028   22.1277 C   0  0  0  0  0  0  0  0  0  0  0  0
   11.1290   -4.8502   19.8052 C   0  0  0  0  0  0  0  0  0  0  0  0
   12.4329   -4.2159   24.4224 C   0  0  0  0  0  0  0  0  0  0  0  0
    3.4740   -9.0387   16.5022 C   0  0  0  0  0  0  0  0  0  0  0  0
    6.8384   -7.9290   17.5282 N   0  0  0  0  0  0  0  0  0  0  0  0
    9.4126   -5.9853   18.4899 C   0  0  0  0  0  0  0  0  0  0  0  0
    4.2064  -10.3242   18.3302 C   0  0  0  0  0  0  0  0  0  0  0  0
    9.6599   -4.1551   16.4796 N   0  0  0  0  0  0  0  0  0  0  0  0
    7.0644   -6.4612   15.7375 N   0  0  0  0  0  0  0  0  0  0  0  0
    5.3549   -9.6322   18.3190 C   0  0  0  0  0  0  0  0  0  0  0  0
   10.3704   -4.9638   18.6510 C   0  0  0  0  0  0  0  0  0  0  0  0
    5.5935   -8.6419   17.4234 C   0  0  0  0  0  0  0  0  0  0  0  0
   13.0726   -4.6648   23.3394 O   0  0  0  0  0  0  0  0  0  0  0  0
    8.5955   -6.0705   17.3996 C   0  0  0  0  0  0  0  0  0  0  0  0
    4.6223   -8.3832   16.5030 C   0  0  0  0  0  0  0  0  0  0  0  0
   12.4690   -5.2624   19.9024 C   0  0  0  0  0  0  0  0  0  0  0  0
    3.2548   -9.9919   17.4189 C   0  0  0  0  0  0  0  0  0  0  0  0
   12.4767   -4.7393   22.1790 C   0  0  0  0  0  0  0  0  0  0  0  0
    7.8593   -5.3772   15.3569 N   0  0  0  0  0  0  0  0  0  0  0  0
    7.4412   -6.9038   16.9283 C   0  0  0  0  0  0  0  0  0  0  0  0
  1 21  4  0
  1 23  4  0
  2  5  1  0
  2 13  4  0
  2 16  4  0
  3  6  4  0
  3  7  4  0
  4 13  4  0
  4 19  4  0
  4 24  4  0
  6 23  4  0
  7 16  1  0
  7 21  4  0
  8 18  1  0
  9 20  4  0
  9 22  4  0
 10 17  1  0
 10 25  1  0
 11 16  4  0
 11 19  4  0
 12 15  4  0
 12 22  4  0
 14 24  4  0
 14 25  4  0
 15 17  4  0
 17 20  4  0
 18 23  1  0
 19 25  4  0
M  END
$$$$

 Created by Python create_sdf_string function

 25 28  0  0  0  0  0  0  0  0999 V2000
   13.1533   -5.2399   21.0682 C   0  0  0  0  0  0  0  0  0  0  0  0
   10.4729   -4.0295   17.6135 C   0  0  0  0  0  0  0  0  0  0  0  0
   10.4789   -4.3641   20.9564 C   0  0  0  0  0  0  0  0  0  0  0  0
    8.7421   -5.1412   16.3650 C   0  0  0  0  0  0  0  0  0  0  0  0
   11.4353   -2.9204   17.8044 C   0  0  0  0  0  0  0  0  0  0  0  0
   11.1529   -4.3028   22.1277 C   0  0  0  0  0  0  0  0  0  0  0  0
   11.1290   -4.8502   19.8052 C   0  0  0  0  0  0  0  0  0  0  0  0
   12.4329   -4.2159   24.4224 C   0  0  0  0  0  0  0  0  0  0  0  0
    3.4740   -9.0387   16.5022 C   0  0  0  0  0  0  0  0  0  0  0  0
    6.8384   -7.9290   17.5282 N   0  0  0  0  0  0  0  0  0  0  0  0
    9.4126   -5.9853   18.4899 C   0  0  0  0  0  0  0  0  0  0  0  0
    4.2064  -10.3242   18.3302 C   0  0  0  0  0  0  0  0  0  0  0  0
    9.6599   -4.1551   16.4796 N   0  0  0  0  0  0  0  0  0  0  0  0
    7.0644   -6.4612   15.7375 N   0  0  0  0  0  0  0  0  0  0  0  0
    5.3549   -9.6322   18.3190 C   0  0  0  0  0  0  0  0  0  0  0  0
   10.3704   -4.9638   18.6510 C   0  0  0  0  0  0  0  0  0  0  0  0
    5.5935   -8.6419   17.4234 C   0  0  0  0  0  0  0  0  0  0  0  0
   13.0726   -4.6648   23.3394 O   0  0  0  0  0  0  0  0  0  0  0  0
    8.5955   -6.0705   17.3996 C   0  0  0  0  0  0  0  0  0  0  0  0
    4.6223   -8.3832   16.5030 C   0  0  0  0  0  0  0  0  0  0  0  0
   12.4690   -5.2624   19.9024 C   0  0  0  0  0  0  0  0  0  0  0  0
    3.2548   -9.9919   17.4189 C   0  0  0  0  0  0  0  0  0  0  0  0
   12.4767   -4.7393   22.1790 C   0  0  0  0  0  0  0  0  0  0  0  0
    7.8593   -5.3772   15.3569 N   0  0  0  0  0  0  0  0  0  0  0  0
    7.4412   -6.9038   16.9283 C   0  0  0  0  0  0  0  0  0  0  0  0
  1 21  4  0
  1 23  4  0
  2  5  1  0
  2 13  4  0
  2 16  4  0
  3  6  4  0
  3  7  4  0
  4 13  4  0
  4 19  4  0
  4 24  4  0
  6 23  4  0
  7 16  1  0
  7 21  4  0
  8 18  1  0
  9 20  4  0
  9 22  4  0
 10 17  1  0
 10 25  1  0
 11 16  4  0
 11 19  4  0
 12 15  4  0
 12 22  4  0
 14 24  4  0
 14 25  4  0
 15 17  4  0
 17 20  4  0
 18 23  1  0
 19 25  4  0
M  END
$$$$

 Created by Python create_sdf_string function

 25 28  0  0  0  0  0  0  0  0999 V2000
   13.1533   -5.2399   21.0682 C   0  0  0  0  0  0  0  0  0  0  0  0
   10.4729   -4.0295   17.6135 C   0  0  0  0  0  0  0  0  0  0  0  0
   10.4789   -4.3641   20.9564 C   0  0  0  0  0  0  0  0  0  0  0  0
    8.7421   -5.1412   16.3650 C   0  0  0  0  0  0  0  0  0  0  0  0
   11.4353   -2.9204   17.8044 C   0  0  0  0  0  0  0  0  0  0  0  0
   11.1529   -4.3028   22.1277 C   0  0  0  0  0  0  0  0  0  0  0  0
   11.1290   -4.8502   19.8052 C   0  0  0  0  0  0  0  0  0  0  0  0
   12.4329   -4.2159   24.4224 C   0  0  0  0  0  0  0  0  0  0  0  0
    3.4740   -9.0387   16.5022 C   0  0  0  0  0  0  0  0  0  0  0  0
    6.8384   -7.9290   17.5282 N   0  0  0  0  0  0  0  0  0  0  0  0
    9.4126   -5.9853   18.4899 C   0  0  0  0  0  0  0  0  0  0  0  0
    4.2064  -10.3242   18.3302 C   0  0  0  0  0  0  0  0  0  0  0  0
    9.6599   -4.1551   16.4796 N   0  0  0  0  0  0  0  0  0  0  0  0
    7.0644   -6.4612   15.7375 N   0  0  0  0  0  0  0  0  0  0  0  0
    5.3549   -9.6322   18.3190 C   0  0  0  0  0  0  0  0  0  0  0  0
   10.3704   -4.9638   18.6510 C   0  0  0  0  0  0  0  0  0  0  0  0
    5.5935   -8.6419   17.4234 C   0  0  0  0  0  0  0  0  0  0  0  0
   13.0726   -4.6648   23.3394 O   0  0  0  0  0  0  0  0  0  0  0  0
    8.5955   -6.0705   17.3996 C   0  0  0  0  0  0  0  0  0  0  0  0
    4.6223   -8.3832   16.5030 C   0  0  0  0  0  0  0  0  0  0  0  0
   12.4690   -5.2624   19.9024 C   0  0  0  0  0  0  0  0  0  0  0  0
    3.2548   -9.9919   17.4189 C   0  0  0  0  0  0  0  0  0  0  0  0
   12.4767   -4.7393   22.1790 C   0  0  0  0  0  0  0  0  0  0  0  0
    7.8593   -5.3772   15.3569 N   0  0  0  0  0  0  0  0  0  0  0  0
    7.4412   -6.9038   16.9283 C   0  0  0  0  0  0  0  0  0  0  0  0
  1 21  4  0
  1 23  4  0
  2  5  1  0
  2 13  4  0
  2 16  4  0
  3  6  4  0
  3  7  4  0
  4 13  4  0
  4 19  4  0
  4 24  4  0
  6 23  4  0
  7 16  1  0
  7 21  4  0
  8 18  1  0
  9 20  4  0
  9 22  4  0
 10 17  1  0
 10 25  1  0
 11 16  4  0
 11 19  4  0
 12 15  4  0
 12 22  4  0
 14 24  4  0
 14 25  4  0
 15 17  4  0
 17 20  4  0
 18 23  1  0
 19 25  4  0
M  END
$$$$

 Created by Python create_sdf_string function

 25 28  0  0  0  0  0  0  0  0999 V2000
   13.1533   -5.2399   21.0682 C   0  0  0  0  0  0  0  0  0  0  0  0
   10.4729   -4.0295   17.6135 C   0  0  0  0  0  0  0  0  0  0  0  0
   10.4789   -4.3641   20.9564 C   0  0  0  0  0  0  0  0  0  0  0  0
    8.7421   -5.1412   16.3650 C   0  0  0  0  0  0  0  0  0  0  0  0
   11.4353   -2.9204   17.8044 C   0  0  0  0  0  0  0  0  0  0  0  0
   11.1529   -4.3028   22.1277 C   0  0  0  0  0  0  0  0  0  0  0  0
   11.1290   -4.8502   19.8052 C   0  0  0  0  0  0  0  0  0  0  0  0
   12.4329   -4.2159   24.4224 C   0  0  0  0  0  0  0  0  0  0  0  0
    3.4740   -9.0387   16.5022 C   0  0  0  0  0  0  0  0  0  0  0  0
    6.8384   -7.9290   17.5282 N   0  0  0  0  0  0  0  0  0  0  0  0
    9.4126   -5.9853   18.4899 C   0  0  0  0  0  0  0  0  0  0  0  0
    4.2064  -10.3242   18.3302 C   0  0  0  0  0  0  0  0  0  0  0  0
    9.6599   -4.1551   16.4796 N   0  0  0  0  0  0  0  0  0  0  0  0
    7.0644   -6.4612   15.7375 N   0  0  0  0  0  0  0  0  0  0  0  0
    5.3549   -9.6322   18.3190 C   0  0  0  0  0  0  0  0  0  0  0  0
   10.3704   -4.9638   18.6510 C   0  0  0  0  0  0  0  0  0  0  0  0
    5.5935   -8.6419   17.4234 C   0  0  0  0  0  0  0  0  0  0  0  0
   13.0726   -4.6648   23.3394 O   0  0  0  0  0  0  0  0  0  0  0  0
    8.5955   -6.0705   17.3996 C   0  0  0  0  0  0  0  0  0  0  0  0
    4.6223   -8.3832   16.5030 C   0  0  0  0  0  0  0  0  0  0  0  0
   12.4690   -5.2624   19.9024 C   0  0  0  0  0  0  0  0  0  0  0  0
    3.2548   -9.9919   17.4189 C   0  0  0  0  0  0  0  0  0  0  0  0
   12.4767   -4.7393   22.1790 C   0  0  0  0  0  0  0  0  0  0  0  0
    7.8593   -5.3772   15.3569 N   0  0  0  0  0  0  0  0  0  0  0  0
    7.4412   -6.9038   16.9283 C   0  0  0  0  0  0  0  0  0  0  0  0
  1 21  4  0
  1 23  4  0
  2  5  1  0
  2 13  4  0
  2 16  4  0
  3  6  4  0
  3  7  4  0
  4 13  4  0
  4 19  4  0
  4 24  4  0
  6 23  4  0
  7 16  1  0
  7 21  4  0
  8 18  1  0
  9 20  4  0
  9 22  4  0
 10 17  1  0
 10 25  1  0
 11 16  4  0
 11 19  4  0
 12 15  4  0
 12 22  4  0
 14 24  4  0
 14 25  4  0
 15 17  4  0
 17 20  4  0
 18 23  1  0
 19 25  4  0
M  END
$$$$

 Created by Python create_sdf_string function

 25 28  0  0  0  0  0  0  0  0999 V2000
   13.1533   -5.2399   21.0682 C   0  0  0  0  0  0  0  0  0  0  0  0
   10.4729   -4.0295   17.6135 C   0  0  0  0  0  0  0  0  0  0  0  0
   10.4789   -4.3641   20.9564 C   0  0  0  0  0  0  0  0  0  0  0  0
    8.7421   -5.1412   16.3650 C   0  0  0  0  0  0  0  0  0  0  0  0
   11.4353   -2.9204   17.8044 C   0  0  0  0  0  0  0  0  0  0  0  0
   11.1529   -4.3028   22.1277 C   0  0  0  0  0  0  0  0  0  0  0  0
   11.1290   -4.8502   19.8052 C   0  0  0  0  0  0  0  0  0  0  0  0
   12.4329   -4.2159   24.4224 C   0  0  0  0  0  0  0  0  0  0  0  0
    3.4740   -9.0387   16.5022 C   0  0  0  0  0  0  0  0  0  0  0  0
    6.8384   -7.9290   17.5282 N   0  0  0  0  0  0  0  0  0  0  0  0
    9.4126   -5.9853   18.4899 C   0  0  0  0  0  0  0  0  0  0  0  0
    4.2064  -10.3242   18.3302 C   0  0  0  0  0  0  0  0  0  0  0  0
    9.6599   -4.1551   16.4796 N   0  0  0  0  0  0  0  0  0  0  0  0
    7.0644   -6.4612   15.7375 N   0  0  0  0  0  0  0  0  0  0  0  0
    5.3549   -9.6322   18.3190 C   0  0  0  0  0  0  0  0  0  0  0  0
   10.3704   -4.9638   18.6510 C   0  0  0  0  0  0  0  0  0  0  0  0
    5.5935   -8.6419   17.4234 C   0  0  0  0  0  0  0  0  0  0  0  0
   13.0726   -4.6648   23.3394 O   0  0  0  0  0  0  0  0  0  0  0  0
    8.5955   -6.0705   17.3996 C   0  0  0  0  0  0  0  0  0  0  0  0
    4.6223   -8.3832   16.5030 C   0  0  0  0  0  0  0  0  0  0  0  0
   12.4690   -5.2624   19.9024 C   0  0  0  0  0  0  0  0  0  0  0  0
    3.2548   -9.9919   17.4189 C   0  0  0  0  0  0  0  0  0  0  0  0
   12.4767   -4.7393   22.1790 C   0  0  0  0  0  0  0  0  0  0  0  0
    7.8593   -5.3772   15.3569 N   0  0  0  0  0  0  0  0  0  0  0  0
    7.4412   -6.9038   16.9283 C   0  0  0  0  0  0  0  0  0  0  0  0
  1 21  4  0
  1 23  4  0
  2  5  1  0
  2 13  4  0
  2 16  4  0
  3  6  4  0
  3  7  4  0
  4 13  4  0
  4 19  4  0
  4 24  4  0
  6 23  4  0
  7 16  1  0
  7 21  4  0
  8 18  1  0
  9 20  4  0
  9 22  4  0
 10 17  1  0
 10 25  1  0
 11 16  4  0
 11 19  4  0
 12 15  4  0
 12 22  4  0
 14 24  4  0
 14 25  4  0
 15 17  4  0
 17 20  4  0
 18 23  1  0
 19 25  4  0
M  END
$$$$

 Created by Python create_sdf_string function

 25 28  0  0  0  0  0  0  0  0999 V2000
   13.1533   -5.2399   21.0682 C   0  0  0  0  0  0  0  0  0  0  0  0
   10.4729   -4.0295   17.6135 C   0  0  0  0  0  0  0  0  0  0  0  0
   10.4789   -4.3641   20.9564 C   0  0  0  0  0  0  0  0  0  0  0  0
    8.7421   -5.1412   16.3650 C   0  0  0  0  0  0  0  0  0  0  0  0
   11.4353   -2.9204   17.8044 C   0  0  0  0  0  0  0  0  0  0  0  0
   11.1529   -4.3028   22.1277 C   0  0  0  0  0  0  0  0  0  0  0  0
   11.1290   -4.8502   19.8052 C   0  0  0  0  0  0  0  0  0  0  0  0
   12.4329   -4.2159   24.4224 C   0  0  0  0  0  0  0  0  0  0  0  0
    3.4740   -9.0387   16.5022 C   0  0  0  0  0  0  0  0  0  0  0  0
    6.8384   -7.9290   17.5282 N   0  0  0  0  0  0  0  0  0  0  0  0
    9.4126   -5.9853   18.4899 C   0  0  0  0  0  0  0  0  0  0  0  0
    4.2064  -10.3242   18.3302 C   0  0  0  0  0  0  0  0  0  0  0  0
    9.6599   -4.1551   16.4796 N   0  0  0  0  0  0  0  0  0  0  0  0
    7.0644   -6.4612   15.7375 N   0  0  0  0  0  0  0  0  0  0  0  0
    5.3549   -9.6322   18.3190 C   0  0  0  0  0  0  0  0  0  0  0  0
   10.3704   -4.9638   18.6510 C   0  0  0  0  0  0  0  0  0  0  0  0
    5.5935   -8.6419   17.4234 C   0  0  0  0  0  0  0  0  0  0  0  0
   13.0726   -4.6648   23.3394 O   0  0  0  0  0  0  0  0  0  0  0  0
    8.5955   -6.0705   17.3996 C   0  0  0  0  0  0  0  0  0  0  0  0
    4.6223   -8.3832   16.5030 C   0  0  0  0  0  0  0  0  0  0  0  0
   12.4690   -5.2624   19.9024 C   0  0  0  0  0  0  0  0  0  0  0  0
    3.2548   -9.9919   17.4189 C   0  0  0  0  0  0  0  0  0  0  0  0
   12.4767   -4.7393   22.1790 C   0  0  0  0  0  0  0  0  0  0  0  0
    7.8593   -5.3772   15.3569 N   0  0  0  0  0  0  0  0  0  0  0  0
    7.4412   -6.9038   16.9283 C   0  0  0  0  0  0  0  0  0  0  0  0
  1 21  4  0
  1 23  4  0
  2  5  1  0
  2 13  4  0
  2 16  4  0
  3  6  4  0
  3  7  4  0
  4 13  4  0
  4 19  4  0
  4 24  4  0
  6 23  4  0
  7 16  1  0
  7 21  4  0
  8 18  1  0
  9 20  4  0
  9 22  4  0
 10 17  1  0
 10 25  1  0
 11 16  4  0
 11 19  4  0
 12 15  4  0
 12 22  4  0
 14 24  4  0
 14 25  4  0
 15 17  4  0
 17 20  4  0
 18 23  1  0
 19 25  4  0
M  END
$$$$

 Created by Python create_sdf_string function

 25 28  0  0  0  0  0  0  0  0999 V2000
   13.1533   -5.2399   21.0682 C   0  0  0  0  0  0  0  0  0  0  0  0
   10.4729   -4.0295   17.6135 C   0  0  0  0  0  0  0  0  0  0  0  0
   10.4789   -4.3641   20.9564 C   0  0  0  0  0  0  0  0  0  0  0  0
    8.7421   -5.1412   16.3650 C   0  0  0  0  0  0  0  0  0  0  0  0
   11.4353   -2.9204   17.8044 C   0  0  0  0  0  0  0  0  0  0  0  0
   11.1529   -4.3028   22.1277 C   0  0  0  0  0  0  0  0  0  0  0  0
   11.1290   -4.8502   19.8052 C   0  0  0  0  0  0  0  0  0  0  0  0
   12.4329   -4.2159   24.4224 C   0  0  0  0  0  0  0  0  0  0  0  0
    3.4740   -9.0387   16.5022 C   0  0  0  0  0  0  0  0  0  0  0  0
    6.8384   -7.9290   17.5282 N   0  0  0  0  0  0  0  0  0  0  0  0
    9.4126   -5.9853   18.4899 C   0  0  0  0  0  0  0  0  0  0  0  0
    4.2064  -10.3242   18.3302 C   0  0  0  0  0  0  0  0  0  0  0  0
    9.6599   -4.1551   16.4796 N   0  0  0  0  0  0  0  0  0  0  0  0
    7.0644   -6.4612   15.7375 N   0  0  0  0  0  0  0  0  0  0  0  0
    5.3549   -9.6322   18.3190 C   0  0  0  0  0  0  0  0  0  0  0  0
   10.3704   -4.9638   18.6510 C   0  0  0  0  0  0  0  0  0  0  0  0
    5.5935   -8.6419   17.4234 C   0  0  0  0  0  0  0  0  0  0  0  0
   13.0726   -4.6648   23.3394 O   0  0  0  0  0  0  0  0  0  0  0  0
    8.5955   -6.0705   17.3996 C   0  0  0  0  0  0  0  0  0  0  0  0
    4.6223   -8.3832   16.5030 C   0  0  0  0  0  0  0  0  0  0  0  0
   12.4690   -5.2624   19.9024 C   0  0  0  0  0  0  0  0  0  0  0  0
    3.2548   -9.9919   17.4189 C   0  0  0  0  0  0  0  0  0  0  0  0
   12.4767   -4.7393   22.1790 C   0  0  0  0  0  0  0  0  0  0  0  0
    7.8593   -5.3772   15.3569 N   0  0  0  0  0  0  0  0  0  0  0  0
    7.4412   -6.9038   16.9283 C   0  0  0  0  0  0  0  0  0  0  0  0
  1 21  4  0
  1 23  4  0
  2  5  1  0
  2 13  4  0
  2 16  4  0
  3  6  4  0
  3  7  4  0
  4 13  4  0
  4 19  4  0
  4 24  4  0
  6 23  4  0
  7 16  1  0
  7 21  4  0
  8 18  1  0
  9 20  4  0
  9 22  4  0
 10 17  1  0
 10 25  1  0
 11 16  4  0
 11 19  4  0
 12 15  4  0
 12 22  4  0
 14 24  4  0
 14 25  4  0
 15 17  4  0
 17 20  4  0
 18 23  1  0
 19 25  4  0
M  END
$$$$

 Created by Python create_sdf_string function

 25 28  0  0  0  0  0  0  0  0999 V2000
   13.1533   -5.2399   21.0682 C   0  0  0  0  0  0  0  0  0  0  0  0
   10.4729   -4.0295   17.6135 C   0  0  0  0  0  0  0  0  0  0  0  0
   10.4789   -4.3641   20.9564 C   0  0  0  0  0  0  0  0  0  0  0  0
    8.7421   -5.1412   16.3650 C   0  0  0  0  0  0  0  0  0  0  0  0
   11.4353   -2.9204   17.8044 C   0  0  0  0  0  0  0  0  0  0  0  0
   11.1529   -4.3028   22.1277 C   0  0  0  0  0  0  0  0  0  0  0  0
   11.1290   -4.8502   19.8052 C   0  0  0  0  0  0  0  0  0  0  0  0
   12.4329   -4.2159   24.4224 C   0  0  0  0  0  0  0  0  0  0  0  0
    3.4740   -9.0387   16.5022 C   0  0  0  0  0  0  0  0  0  0  0  0
    6.8384   -7.9290   17.5282 N   0  0  0  0  0  0  0  0  0  0  0  0
    9.4126   -5.9853   18.4899 C   0  0  0  0  0  0  0  0  0  0  0  0
    4.2064  -10.3242   18.3302 C   0  0  0  0  0  0  0  0  0  0  0  0
    9.6599   -4.1551   16.4796 N   0  0  0  0  0  0  0  0  0  0  0  0
    7.0644   -6.4612   15.7375 N   0  0  0  0  0  0  0  0  0  0  0  0
    5.3549   -9.6322   18.3190 C   0  0  0  0  0  0  0  0  0  0  0  0
   10.3704   -4.9638   18.6510 C   0  0  0  0  0  0  0  0  0  0  0  0
    5.5935   -8.6419   17.4234 C   0  0  0  0  0  0  0  0  0  0  0  0
   13.0726   -4.6648   23.3394 O   0  0  0  0  0  0  0  0  0  0  0  0
    8.5955   -6.0705   17.3996 C   0  0  0  0  0  0  0  0  0  0  0  0
    4.6223   -8.3832   16.5030 C   0  0  0  0  0  0  0  0  0  0  0  0
   12.4690   -5.2624   19.9024 C   0  0  0  0  0  0  0  0  0  0  0  0
    3.2548   -9.9919   17.4189 C   0  0  0  0  0  0  0  0  0  0  0  0
   12.4767   -4.7393   22.1790 C   0  0  0  0  0  0  0  0  0  0  0  0
    7.8593   -5.3772   15.3569 N   0  0  0  0  0  0  0  0  0  0  0  0
    7.4412   -6.9038   16.9283 C   0  0  0  0  0  0  0  0  0  0  0  0
  1 21  4  0
  1 23  4  0
  2  5  1  0
  2 13  4  0
  2 16  4  0
  3  6  4  0
  3  7  4  0
  4 13  4  0
  4 19  4  0
  4 24  4  0
  6 23  4  0
  7 16  1  0
  7 21  4  0
  8 18  1  0
  9 20  4  0
  9 22  4  0
 10 17  1  0
 10 25  1  0
 11 16  4  0
 11 19  4  0
 12 15  4  0
 12 22  4  0
 14 24  4  0
 14 25  4  0
 15 17  4  0
 17 20  4  0
 18 23  1  0
 19 25  4  0
M  END
$$$$

 Created by Python create_sdf_string function

 25 28  0  0  0  0  0  0  0  0999 V2000
   13.1533   -5.2399   21.0682 C   0  0  0  0  0  0  0  0  0  0  0  0
   10.4729   -4.0295   17.6135 C   0  0  0  0  0  0  0  0  0  0  0  0
   10.4789   -4.3641   20.9564 C   0  0  0  0  0  0  0  0  0  0  0  0
    8.7421   -5.1412   16.3650 C   0  0  0  0  0  0  0  0  0  0  0  0
   11.4353   -2.9204   17.8044 C   0  0  0  0  0  0  0  0  0  0  0  0
   11.1529   -4.3028   22.1277 C   0  0  0  0  0  0  0  0  0  0  0  0
   11.1290   -4.8502   19.8052 C   0  0  0  0  0  0  0  0  0  0  0  0
   12.4329   -4.2159   24.4224 C   0  0  0  0  0  0  0  0  0  0  0  0
    3.4740   -9.0387   16.5022 C   0  0  0  0  0  0  0  0  0  0  0  0
    6.8384   -7.9290   17.5282 N   0  0  0  0  0  0  0  0  0  0  0  0
    9.4126   -5.9853   18.4899 C   0  0  0  0  0  0  0  0  0  0  0  0
    4.2064  -10.3242   18.3302 C   0  0  0  0  0  0  0  0  0  0  0  0
    9.6599   -4.1551   16.4796 N   0  0  0  0  0  0  0  0  0  0  0  0
    7.0644   -6.4612   15.7375 N   0  0  0  0  0  0  0  0  0  0  0  0
    5.3549   -9.6322   18.3190 C   0  0  0  0  0  0  0  0  0  0  0  0
   10.3704   -4.9638   18.6510 C   0  0  0  0  0  0  0  0  0  0  0  0
    5.5935   -8.6419   17.4234 C   0  0  0  0  0  0  0  0  0  0  0  0
   13.0726   -4.6648   23.3394 O   0  0  0  0  0  0  0  0  0  0  0  0
    8.5955   -6.0705   17.3996 C   0  0  0  0  0  0  0  0  0  0  0  0
    4.6223   -8.3832   16.5030 C   0  0  0  0  0  0  0  0  0  0  0  0
   12.4690   -5.2624   19.9024 C   0  0  0  0  0  0  0  0  0  0  0  0
    3.2548   -9.9919   17.4189 C   0  0  0  0  0  0  0  0  0  0  0  0
   12.4767   -4.7393   22.1790 C   0  0  0  0  0  0  0  0  0  0  0  0
    7.8593   -5.3772   15.3569 N   0  0  0  0  0  0  0  0  0  0  0  0
    7.4412   -6.9038   16.9283 C   0  0  0  0  0  0  0  0  0  0  0  0
  1 21  4  0
  1 23  4  0
  2  5  1  0
  2 13  4  0
  2 16  4  0
  3  6  4  0
  3  7  4  0
  4 13  4  0
  4 19  4  0
  4 24  4  0
  6 23  4  0
  7 16  1  0
  7 21  4  0
  8 18  1  0
  9 20  4  0
  9 22  4  0
 10 17  1  0
 10 25  1  0
 11 16  4  0
 11 19  4  0
 12 15  4  0
 12 22  4  0
 14 24  4  0
 14 25  4  0
 15 17  4  0
 17 20  4  0
 18 23  1  0
 19 25  4  0
M  END
$$$$

 Created by Python create_sdf_string function

 25 28  0  0  0  0  0  0  0  0999 V2000
   13.1533   -5.2399   21.0682 C   0  0  0  0  0  0  0  0  0  0  0  0
   10.4729   -4.0295   17.6135 C   0  0  0  0  0  0  0  0  0  0  0  0
   10.4789   -4.3641   20.9564 C   0  0  0  0  0  0  0  0  0  0  0  0
    8.7421   -5.1412   16.3650 C   0  0  0  0  0  0  0  0  0  0  0  0
   11.4353   -2.9204   17.8044 C   0  0  0  0  0  0  0  0  0  0  0  0
   11.1529   -4.3028   22.1277 C   0  0  0  0  0  0  0  0  0  0  0  0
   11.1290   -4.8502   19.8052 C   0  0  0  0  0  0  0  0  0  0  0  0
   12.4329   -4.2159   24.4224 C   0  0  0  0  0  0  0  0  0  0  0  0
    3.4740   -9.0387   16.5022 C   0  0  0  0  0  0  0  0  0  0  0  0
    6.8384   -7.9290   17.5282 N   0  0  0  0  0  0  0  0  0  0  0  0
    9.4126   -5.9853   18.4899 C   0  0  0  0  0  0  0  0  0  0  0  0
    4.2064  -10.3242   18.3302 C   0  0  0  0  0  0  0  0  0  0  0  0
    9.6599   -4.1551   16.4796 N   0  0  0  0  0  0  0  0  0  0  0  0
    7.0644   -6.4612   15.7375 N   0  0  0  0  0  0  0  0  0  0  0  0
    5.3549   -9.6322   18.3190 C   0  0  0  0  0  0  0  0  0  0  0  0
   10.3704   -4.9638   18.6510 C   0  0  0  0  0  0  0  0  0  0  0  0
    5.5935   -8.6419   17.4234 C   0  0  0  0  0  0  0  0  0  0  0  0
   13.0726   -4.6648   23.3394 O   0  0  0  0  0  0  0  0  0  0  0  0
    8.5955   -6.0705   17.3996 C   0  0  0  0  0  0  0  0  0  0  0  0
    4.6223   -8.3832   16.5030 C   0  0  0  0  0  0  0  0  0  0  0  0
   12.4690   -5.2624   19.9024 C   0  0  0  0  0  0  0  0  0  0  0  0
    3.2548   -9.9919   17.4189 C   0  0  0  0  0  0  0  0  0  0  0  0
   12.4767   -4.7393   22.1790 C   0  0  0  0  0  0  0  0  0  0  0  0
    7.8593   -5.3772   15.3569 N   0  0  0  0  0  0  0  0  0  0  0  0
    7.4412   -6.9038   16.9283 C   0  0  0  0  0  0  0  0  0  0  0  0
  1 21  4  0
  1 23  4  0
  2  5  1  0
  2 13  4  0
  2 16  4  0
  3  6  4  0
  3  7  4  0
  4 13  4  0
  4 19  4  0
  4 24  4  0
  6 23  4  0
  7 16  1  0
  7 21  4  0
  8 18  1  0
  9 20  4  0
  9 22  4  0
 10 17  1  0
 10 25  1  0
 11 16  4  0
 11 19  4  0
 12 15  4  0
 12 22  4  0
 14 24  4  0
 14 25  4  0
 15 17  4  0
 17 20  4  0
 18 23  1  0
 19 25  4  0
M  END
$$$$

 Created by Python create_sdf_string function

 25 28  0  0  0  0  0  0  0  0999 V2000
   13.1533   -5.2399   21.0682 C   0  0  0  0  0  0  0  0  0  0  0  0
   10.4729   -4.0295   17.6135 C   0  0  0  0  0  0  0  0  0  0  0  0
   10.4789   -4.3641   20.9564 C   0  0  0  0  0  0  0  0  0  0  0  0
    8.7421   -5.1412   16.3650 C   0  0  0  0  0  0  0  0  0  0  0  0
   11.4353   -2.9204   17.8044 C   0  0  0  0  0  0  0  0  0  0  0  0
   11.1529   -4.3028   22.1277 C   0  0  0  0  0  0  0  0  0  0  0  0
   11.1290   -4.8502   19.8052 C   0  0  0  0  0  0  0  0  0  0  0  0
   12.4329   -4.2159   24.4224 C   0  0  0  0  0  0  0  0  0  0  0  0
    3.4740   -9.0387   16.5022 C   0  0  0  0  0  0  0  0  0  0  0  0
    6.8384   -7.9290   17.5282 N   0  0  0  0  0  0  0  0  0  0  0  0
    9.4126   -5.9853   18.4899 C   0  0  0  0  0  0  0  0  0  0  0  0
    4.2064  -10.3242   18.3302 C   0  0  0  0  0  0  0  0  0  0  0  0
    9.6599   -4.1551   16.4796 N   0  0  0  0  0  0  0  0  0  0  0  0
    7.0644   -6.4612   15.7375 N   0  0  0  0  0  0  0  0  0  0  0  0
    5.3549   -9.6322   18.3190 C   0  0  0  0  0  0  0  0  0  0  0  0
   10.3704   -4.9638   18.6510 C   0  0  0  0  0  0  0  0  0  0  0  0
    5.5935   -8.6419   17.4234 C   0  0  0  0  0  0  0  0  0  0  0  0
   13.0726   -4.6648   23.3394 O   0  0  0  0  0  0  0  0  0  0  0  0
    8.5955   -6.0705   17.3996 C   0  0  0  0  0  0  0  0  0  0  0  0
    4.6223   -8.3832   16.5030 C   0  0  0  0  0  0  0  0  0  0  0  0
   12.4690   -5.2624   19.9024 C   0  0  0  0  0  0  0  0  0  0  0  0
    3.2548   -9.9919   17.4189 C   0  0  0  0  0  0  0  0  0  0  0  0
   12.4767   -4.7393   22.1790 C   0  0  0  0  0  0  0  0  0  0  0  0
    7.8593   -5.3772   15.3569 N   0  0  0  0  0  0  0  0  0  0  0  0
    7.4412   -6.9038   16.9283 C   0  0  0  0  0  0  0  0  0  0  0  0
  1 21  4  0
  1 23  4  0
  2  5  1  0
  2 13  4  0
  2 16  4  0
  3  6  4  0
  3  7  4  0
  4 13  4  0
  4 19  4  0
  4 24  4  0
  6 23  4  0
  7 16  1  0
  7 21  4  0
  8 18  1  0
  9 20  4  0
  9 22  4  0
 10 17  1  0
 10 25  1  0
 11 16  4  0
 11 19  4  0
 12 15  4  0
 12 22  4  0
 14 24  4  0
 14 25  4  0
 15 17  4  0
 17 20  4  0
 18 23  1  0
 19 25  4  0
M  END
$$$$

 Created by Python create_sdf_string function

 25 28  0  0  0  0  0  0  0  0999 V2000
   13.1533   -5.2399   21.0682 C   0  0  0  0  0  0  0  0  0  0  0  0
   10.4729   -4.0295   17.6135 C   0  0  0  0  0  0  0  0  0  0  0  0
   10.4789   -4.3641   20.9564 C   0  0  0  0  0  0  0  0  0  0  0  0
    8.7421   -5.1412   16.3650 C   0  0  0  0  0  0  0  0  0  0  0  0
   11.4353   -2.9204   17.8044 C   0  0  0  0  0  0  0  0  0  0  0  0
   11.1529   -4.3028   22.1277 C   0  0  0  0  0  0  0  0  0  0  0  0
   11.1290   -4.8502   19.8052 C   0  0  0  0  0  0  0  0  0  0  0  0
   12.4329   -4.2159   24.4224 C   0  0  0  0  0  0  0  0  0  0  0  0
    3.4740   -9.0387   16.5022 C   0  0  0  0  0  0  0  0  0  0  0  0
    6.8384   -7.9290   17.5282 N   0  0  0  0  0  0  0  0  0  0  0  0
    9.4126   -5.9853   18.4899 C   0  0  0  0  0  0  0  0  0  0  0  0
    4.2064  -10.3242   18.3302 C   0  0  0  0  0  0  0  0  0  0  0  0
    9.6599   -4.1551   16.4796 N   0  0  0  0  0  0  0  0  0  0  0  0
    7.0644   -6.4612   15.7375 N   0  0  0  0  0  0  0  0  0  0  0  0
    5.3549   -9.6322   18.3190 C   0  0  0  0  0  0  0  0  0  0  0  0
   10.3704   -4.9638   18.6510 C   0  0  0  0  0  0  0  0  0  0  0  0
    5.5935   -8.6419   17.4234 C   0  0  0  0  0  0  0  0  0  0  0  0
   13.0726   -4.6648   23.3394 O   0  0  0  0  0  0  0  0  0  0  0  0
    8.5955   -6.0705   17.3996 C   0  0  0  0  0  0  0  0  0  0  0  0
    4.6223   -8.3832   16.5030 C   0  0  0  0  0  0  0  0  0  0  0  0
   12.4690   -5.2624   19.9024 C   0  0  0  0  0  0  0  0  0  0  0  0
    3.2548   -9.9919   17.4189 C   0  0  0  0  0  0  0  0  0  0  0  0
   12.4767   -4.7393   22.1790 C   0  0  0  0  0  0  0  0  0  0  0  0
    7.8593   -5.3772   15.3569 N   0  0  0  0  0  0  0  0  0  0  0  0
    7.4412   -6.9038   16.9283 C   0  0  0  0  0  0  0  0  0  0  0  0
  1 21  4  0
  1 23  4  0
  2  5  1  0
  2 13  4  0
  2 16  4  0
  3  6  4  0
  3  7  4  0
  4 13  4  0
  4 19  4  0
  4 24  4  0
  6 23  4  0
  7 16  1  0
  7 21  4  0
  8 18  1  0
  9 20  4  0
  9 22  4  0
 10 17  1  0
 10 25  1  0
 11 16  4  0
 11 19  4  0
 12 15  4  0
 12 22  4  0
 14 24  4  0
 14 25  4  0
 15 17  4  0
 17 20  4  0
 18 23  1  0
 19 25  4  0
M  END
$$$$

 Created by Python create_sdf_string function

 25 28  0  0  0  0  0  0  0  0999 V2000
   13.1533   -5.2399   21.0682 C   0  0  0  0  0  0  0  0  0  0  0  0
   10.4729   -4.0295   17.6135 C   0  0  0  0  0  0  0  0  0  0  0  0
   10.4789   -4.3641   20.9564 C   0  0  0  0  0  0  0  0  0  0  0  0
    8.7421   -5.1412   16.3650 C   0  0  0  0  0  0  0  0  0  0  0  0
   11.4353   -2.9204   17.8044 C   0  0  0  0  0  0  0  0  0  0  0  0
   11.1529   -4.3028   22.1277 C   0  0  0  0  0  0  0  0  0  0  0  0
   11.1290   -4.8502   19.8052 C   0  0  0  0  0  0  0  0  0  0  0  0
   12.4329   -4.2159   24.4224 C   0  0  0  0  0  0  0  0  0  0  0  0
    3.4740   -9.0387   16.5022 C   0  0  0  0  0  0  0  0  0  0  0  0
    6.8384   -7.9290   17.5282 N   0  0  0  0  0  0  0  0  0  0  0  0
    9.4126   -5.9853   18.4899 C   0  0  0  0  0  0  0  0  0  0  0  0
    4.2064  -10.3242   18.3302 C   0  0  0  0  0  0  0  0  0  0  0  0
    9.6599   -4.1551   16.4796 N   0  0  0  0  0  0  0  0  0  0  0  0
    7.0644   -6.4612   15.7375 N   0  0  0  0  0  0  0  0  0  0  0  0
    5.3549   -9.6322   18.3190 C   0  0  0  0  0  0  0  0  0  0  0  0
   10.3704   -4.9638   18.6510 C   0  0  0  0  0  0  0  0  0  0  0  0
    5.5935   -8.6419   17.4234 C   0  0  0  0  0  0  0  0  0  0  0  0
   13.0726   -4.6648   23.3394 O   0  0  0  0  0  0  0  0  0  0  0  0
    8.5955   -6.0705   17.3996 C   0  0  0  0  0  0  0  0  0  0  0  0
    4.6223   -8.3832   16.5030 C   0  0  0  0  0  0  0  0  0  0  0  0
   12.4690   -5.2624   19.9024 C   0  0  0  0  0  0  0  0  0  0  0  0
    3.2548   -9.9919   17.4189 C   0  0  0  0  0  0  0  0  0  0  0  0
   12.4767   -4.7393   22.1790 C   0  0  0  0  0  0  0  0  0  0  0  0
    7.8593   -5.3772   15.3569 N   0  0  0  0  0  0  0  0  0  0  0  0
    7.4412   -6.9038   16.9283 C   0  0  0  0  0  0  0  0  0  0  0  0
  1 21  4  0
  1 23  4  0
  2  5  1  0
  2 13  4  0
  2 16  4  0
  3  6  4  0
  3  7  4  0
  4 13  4  0
  4 19  4  0
  4 24  4  0
  6 23  4  0
  7 16  1  0
  7 21  4  0
  8 18  1  0
  9 20  4  0
  9 22  4  0
 10 17  1  0
 10 25  1  0
 11 16  4  0
 11 19  4  0
 12 15  4  0
 12 22  4  0
 14 24  4  0
 14 25  4  0
 15 17  4  0
 17 20  4  0
 18 23  1  0
 19 25  4  0
M  END
$$$$

 Created by Python create_sdf_string function

 25 28  0  0  0  0  0  0  0  0999 V2000
   13.1533   -5.2399   21.0682 C   0  0  0  0  0  0  0  0  0  0  0  0
   10.4729   -4.0295   17.6135 C   0  0  0  0  0  0  0  0  0  0  0  0
   10.4789   -4.3641   20.9564 C   0  0  0  0  0  0  0  0  0  0  0  0
    8.7421   -5.1412   16.3650 C   0  0  0  0  0  0  0  0  0  0  0  0
   11.4353   -2.9204   17.8044 C   0  0  0  0  0  0  0  0  0  0  0  0
   11.1529   -4.3028   22.1277 C   0  0  0  0  0  0  0  0  0  0  0  0
   11.1290   -4.8502   19.8052 C   0  0  0  0  0  0  0  0  0  0  0  0
   12.4329   -4.2159   24.4224 C   0  0  0  0  0  0  0  0  0  0  0  0
    3.4740   -9.0387   16.5022 C   0  0  0  0  0  0  0  0  0  0  0  0
    6.8384   -7.9290   17.5282 N   0  0  0  0  0  0  0  0  0  0  0  0
    9.4126   -5.9853   18.4899 C   0  0  0  0  0  0  0  0  0  0  0  0
    4.2064  -10.3242   18.3302 C   0  0  0  0  0  0  0  0  0  0  0  0
    9.6599   -4.1551   16.4796 N   0  0  0  0  0  0  0  0  0  0  0  0
    7.0644   -6.4612   15.7375 N   0  0  0  0  0  0  0  0  0  0  0  0
    5.3549   -9.6322   18.3190 C   0  0  0  0  0  0  0  0  0  0  0  0
   10.3704   -4.9638   18.6510 C   0  0  0  0  0  0  0  0  0  0  0  0
    5.5935   -8.6419   17.4234 C   0  0  0  0  0  0  0  0  0  0  0  0
   13.0726   -4.6648   23.3394 O   0  0  0  0  0  0  0  0  0  0  0  0
    8.5955   -6.0705   17.3996 C   0  0  0  0  0  0  0  0  0  0  0  0
    4.6223   -8.3832   16.5030 C   0  0  0  0  0  0  0  0  0  0  0  0
   12.4690   -5.2624   19.9024 C   0  0  0  0  0  0  0  0  0  0  0  0
    3.2548   -9.9919   17.4189 C   0  0  0  0  0  0  0  0  0  0  0  0
   12.4767   -4.7393   22.1790 C   0  0  0  0  0  0  0  0  0  0  0  0
    7.8593   -5.3772   15.3569 N   0  0  0  0  0  0  0  0  0  0  0  0
    7.4412   -6.9038   16.9283 C   0  0  0  0  0  0  0  0  0  0  0  0
  1 21  4  0
  1 23  4  0
  2  5  1  0
  2 13  4  0
  2 16  4  0
  3  6  4  0
  3  7  4  0
  4 13  4  0
  4 19  4  0
  4 24  4  0
  6 23  4  0
  7 16  1  0
  7 21  4  0
  8 18  1  0
  9 20  4  0
  9 22  4  0
 10 17  1  0
 10 25  1  0
 11 16  4  0
 11 19  4  0
 12 15  4  0
 12 22  4  0
 14 24  4  0
 14 25  4  0
 15 17  4  0
 17 20  4  0
 18 23  1  0
 19 25  4  0
M  END
$$$$

 Created by Python create_sdf_string function

 25 28  0  0  0  0  0  0  0  0999 V2000
   13.1533   -5.2399   21.0682 C   0  0  0  0  0  0  0  0  0  0  0  0
   10.4729   -4.0295   17.6135 C   0  0  0  0  0  0  0  0  0  0  0  0
   10.4789   -4.3641   20.9564 C   0  0  0  0  0  0  0  0  0  0  0  0
    8.7421   -5.1412   16.3650 C   0  0  0  0  0  0  0  0  0  0  0  0
   11.4353   -2.9204   17.8044 C   0  0  0  0  0  0  0  0  0  0  0  0
   11.1529   -4.3028   22.1277 C   0  0  0  0  0  0  0  0  0  0  0  0
   11.1290   -4.8502   19.8052 C   0  0  0  0  0  0  0  0  0  0  0  0
   12.4329   -4.2159   24.4224 C   0  0  0  0  0  0  0  0  0  0  0  0
    3.4740   -9.0387   16.5022 C   0  0  0  0  0  0  0  0  0  0  0  0
    6.8384   -7.9290   17.5282 N   0  0  0  0  0  0  0  0  0  0  0  0
    9.4126   -5.9853   18.4899 C   0  0  0  0  0  0  0  0  0  0  0  0
    4.2064  -10.3242   18.3302 C   0  0  0  0  0  0  0  0  0  0  0  0
    9.6599   -4.1551   16.4796 N   0  0  0  0  0  0  0  0  0  0  0  0
    7.0644   -6.4612   15.7375 N   0  0  0  0  0  0  0  0  0  0  0  0
    5.3549   -9.6322   18.3190 C   0  0  0  0  0  0  0  0  0  0  0  0
   10.3704   -4.9638   18.6510 C   0  0  0  0  0  0  0  0  0  0  0  0
    5.5935   -8.6419   17.4234 C   0  0  0  0  0  0  0  0  0  0  0  0
   13.0726   -4.6648   23.3394 O   0  0  0  0  0  0  0  0  0  0  0  0
    8.5955   -6.0705   17.3996 C   0  0  0  0  0  0  0  0  0  0  0  0
    4.6223   -8.3832   16.5030 C   0  0  0  0  0  0  0  0  0  0  0  0
   12.4690   -5.2624   19.9024 C   0  0  0  0  0  0  0  0  0  0  0  0
    3.2548   -9.9919   17.4189 C   0  0  0  0  0  0  0  0  0  0  0  0
   12.4767   -4.7393   22.1790 C   0  0  0  0  0  0  0  0  0  0  0  0
    7.8593   -5.3772   15.3569 N   0  0  0  0  0  0  0  0  0  0  0  0
    7.4412   -6.9038   16.9283 C   0  0  0  0  0  0  0  0  0  0  0  0
  1 21  4  0
  1 23  4  0
  2  5  1  0
  2 13  4  0
  2 16  4  0
  3  6  4  0
  3  7  4  0
  4 13  4  0
  4 19  4  0
  4 24  4  0
  6 23  4  0
  7 16  1  0
  7 21  4  0
  8 18  1  0
  9 20  4  0
  9 22  4  0
 10 17  1  0
 10 25  1  0
 11 16  4  0
 11 19  4  0
 12 15  4  0
 12 22  4  0
 14 24  4  0
 14 25  4  0
 15 17  4  0
 17 20  4  0
 18 23  1  0
 19 25  4  0
M  END
$$$$

 Created by Python create_sdf_string function

 25 28  0  0  0  0  0  0  0  0999 V2000
   13.1533   -5.2399   21.0682 C   0  0  0  0  0  0  0  0  0  0  0  0
   10.4729   -4.0295   17.6135 C   0  0  0  0  0  0  0  0  0  0  0  0
   10.4789   -4.3641   20.9564 C   0  0  0  0  0  0  0  0  0  0  0  0
    8.7421   -5.1412   16.3650 C   0  0  0  0  0  0  0  0  0  0  0  0
   11.4353   -2.9204   17.8044 C   0  0  0  0  0  0  0  0  0  0  0  0
   11.1529   -4.3028   22.1277 C   0  0  0  0  0  0  0  0  0  0  0  0
   11.1290   -4.8502   19.8052 C   0  0  0  0  0  0  0  0  0  0  0  0
   12.4329   -4.2159   24.4224 C   0  0  0  0  0  0  0  0  0  0  0  0
    3.4740   -9.0387   16.5022 C   0  0  0  0  0  0  0  0  0  0  0  0
    6.8384   -7.9290   17.5282 N   0  0  0  0  0  0  0  0  0  0  0  0
    9.4126   -5.9853   18.4899 C   0  0  0  0  0  0  0  0  0  0  0  0
    4.2064  -10.3242   18.3302 C   0  0  0  0  0  0  0  0  0  0  0  0
    9.6599   -4.1551   16.4796 N   0  0  0  0  0  0  0  0  0  0  0  0
    7.0644   -6.4612   15.7375 N   0  0  0  0  0  0  0  0  0  0  0  0
    5.3549   -9.6322   18.3190 C   0  0  0  0  0  0  0  0  0  0  0  0
   10.3704   -4.9638   18.6510 C   0  0  0  0  0  0  0  0  0  0  0  0
    5.5935   -8.6419   17.4234 C   0  0  0  0  0  0  0  0  0  0  0  0
   13.0726   -4.6648   23.3394 O   0  0  0  0  0  0  0  0  0  0  0  0
    8.5955   -6.0705   17.3996 C   0  0  0  0  0  0  0  0  0  0  0  0
    4.6223   -8.3832   16.5030 C   0  0  0  0  0  0  0  0  0  0  0  0
   12.4690   -5.2624   19.9024 C   0  0  0  0  0  0  0  0  0  0  0  0
    3.2548   -9.9919   17.4189 C   0  0  0  0  0  0  0  0  0  0  0  0
   12.4767   -4.7393   22.1790 C   0  0  0  0  0  0  0  0  0  0  0  0
    7.8593   -5.3772   15.3569 N   0  0  0  0  0  0  0  0  0  0  0  0
    7.4412   -6.9038   16.9283 C   0  0  0  0  0  0  0  0  0  0  0  0
  1 21  4  0
  1 23  4  0
  2  5  1  0
  2 13  4  0
  2 16  4  0
  3  6  4  0
  3  7  4  0
  4 13  4  0
  4 19  4  0
  4 24  4  0
  6 23  4  0
  7 16  1  0
  7 21  4  0
  8 18  1  0
  9 20  4  0
  9 22  4  0
 10 17  1  0
 10 25  1  0
 11 16  4  0
 11 19  4  0
 12 15  4  0
 12 22  4  0
 14 24  4  0
 14 25  4  0
 15 17  4  0
 17 20  4  0
 18 23  1  0
 19 25  4  0
M  END
$$$$

 Created by Python create_sdf_string function

 25 28  0  0  0  0  0  0  0  0999 V2000
   13.1533   -5.2399   21.0682 C   0  0  0  0  0  0  0  0  0  0  0  0
   10.4729   -4.0295   17.6135 C   0  0  0  0  0  0  0  0  0  0  0  0
   10.4789   -4.3641   20.9564 C   0  0  0  0  0  0  0  0  0  0  0  0
    8.7421   -5.1412   16.3650 C   0  0  0  0  0  0  0  0  0  0  0  0
   11.4353   -2.9204   17.8044 C   0  0  0  0  0  0  0  0  0  0  0  0
   11.1529   -4.3028   22.1277 C   0  0  0  0  0  0  0  0  0  0  0  0
   11.1290   -4.8502   19.8052 C   0  0  0  0  0  0  0  0  0  0  0  0
   12.4329   -4.2159   24.4224 C   0  0  0  0  0  0  0  0  0  0  0  0
    3.4740   -9.0387   16.5022 C   0  0  0  0  0  0  0  0  0  0  0  0
    6.8384   -7.9290   17.5282 N   0  0  0  0  0  0  0  0  0  0  0  0
    9.4126   -5.9853   18.4899 C   0  0  0  0  0  0  0  0  0  0  0  0
    4.2064  -10.3242   18.3302 C   0  0  0  0  0  0  0  0  0  0  0  0
    9.6599   -4.1551   16.4796 N   0  0  0  0  0  0  0  0  0  0  0  0
    7.0644   -6.4612   15.7375 N   0  0  0  0  0  0  0  0  0  0  0  0
    5.3549   -9.6322   18.3190 C   0  0  0  0  0  0  0  0  0  0  0  0
   10.3704   -4.9638   18.6510 C   0  0  0  0  0  0  0  0  0  0  0  0
    5.5935   -8.6419   17.4234 C   0  0  0  0  0  0  0  0  0  0  0  0
   13.0726   -4.6648   23.3394 O   0  0  0  0  0  0  0  0  0  0  0  0
    8.5955   -6.0705   17.3996 C   0  0  0  0  0  0  0  0  0  0  0  0
    4.6223   -8.3832   16.5030 C   0  0  0  0  0  0  0  0  0  0  0  0
   12.4690   -5.2624   19.9024 C   0  0  0  0  0  0  0  0  0  0  0  0
    3.2548   -9.9919   17.4189 C   0  0  0  0  0  0  0  0  0  0  0  0
   12.4767   -4.7393   22.1790 C   0  0  0  0  0  0  0  0  0  0  0  0
    7.8593   -5.3772   15.3569 N   0  0  0  0  0  0  0  0  0  0  0  0
    7.4412   -6.9038   16.9283 C   0  0  0  0  0  0  0  0  0  0  0  0
  1 21  4  0
  1 23  4  0
  2  5  1  0
  2 13  4  0
  2 16  4  0
  3  6  4  0
  3  7  4  0
  4 13  4  0
  4 19  4  0
  4 24  4  0
  6 23  4  0
  7 16  1  0
  7 21  4  0
  8 18  1  0
  9 20  4  0
  9 22  4  0
 10 17  1  0
 10 25  1  0
 11 16  4  0
 11 19  4  0
 12 15  4  0
 12 22  4  0
 14 24  4  0
 14 25  4  0
 15 17  4  0
 17 20  4  0
 18 23  1  0
 19 25  4  0
M  END
$$$$

 Created by Python create_sdf_string function

 25 28  0  0  0  0  0  0  0  0999 V2000
   13.1533   -5.2399   21.0682 C   0  0  0  0  0  0  0  0  0  0  0  0
   10.4729   -4.0295   17.6135 C   0  0  0  0  0  0  0  0  0  0  0  0
   10.4789   -4.3641   20.9564 C   0  0  0  0  0  0  0  0  0  0  0  0
    8.7421   -5.1412   16.3650 C   0  0  0  0  0  0  0  0  0  0  0  0
   11.4353   -2.9204   17.8044 C   0  0  0  0  0  0  0  0  0  0  0  0
   11.1529   -4.3028   22.1277 C   0  0  0  0  0  0  0  0  0  0  0  0
   11.1290   -4.8502   19.8052 C   0  0  0  0  0  0  0  0  0  0  0  0
   12.4329   -4.2159   24.4224 C   0  0  0  0  0  0  0  0  0  0  0  0
    3.4740   -9.0387   16.5022 C   0  0  0  0  0  0  0  0  0  0  0  0
    6.8384   -7.9290   17.5282 N   0  0  0  0  0  0  0  0  0  0  0  0
    9.4126   -5.9853   18.4899 C   0  0  0  0  0  0  0  0  0  0  0  0
    4.2064  -10.3242   18.3302 C   0  0  0  0  0  0  0  0  0  0  0  0
    9.6599   -4.1551   16.4796 N   0  0  0  0  0  0  0  0  0  0  0  0
    7.0644   -6.4612   15.7375 N   0  0  0  0  0  0  0  0  0  0  0  0
    5.3549   -9.6322   18.3190 C   0  0  0  0  0  0  0  0  0  0  0  0
   10.3704   -4.9638   18.6510 C   0  0  0  0  0  0  0  0  0  0  0  0
    5.5935   -8.6419   17.4234 C   0  0  0  0  0  0  0  0  0  0  0  0
   13.0726   -4.6648   23.3394 O   0  0  0  0  0  0  0  0  0  0  0  0
    8.5955   -6.0705   17.3996 C   0  0  0  0  0  0  0  0  0  0  0  0
    4.6223   -8.3832   16.5030 C   0  0  0  0  0  0  0  0  0  0  0  0
   12.4690   -5.2624   19.9024 C   0  0  0  0  0  0  0  0  0  0  0  0
    3.2548   -9.9919   17.4189 C   0  0  0  0  0  0  0  0  0  0  0  0
   12.4767   -4.7393   22.1790 C   0  0  0  0  0  0  0  0  0  0  0  0
    7.8593   -5.3772   15.3569 N   0  0  0  0  0  0  0  0  0  0  0  0
    7.4412   -6.9038   16.9283 C   0  0  0  0  0  0  0  0  0  0  0  0
  1 21  4  0
  1 23  4  0
  2  5  1  0
  2 13  4  0
  2 16  4  0
  3  6  4  0
  3  7  4  0
  4 13  4  0
  4 19  4  0
  4 24  4  0
  6 23  4  0
  7 16  1  0
  7 21  4  0
  8 18  1  0
  9 20  4  0
  9 22  4  0
 10 17  1  0
 10 25  1  0
 11 16  4  0
 11 19  4  0
 12 15  4  0
 12 22  4  0
 14 24  4  0
 14 25  4  0
 15 17  4  0
 17 20  4  0
 18 23  1  0
 19 25  4  0
M  END
$$$$

 Created by Python create_sdf_string function

 25 28  0  0  0  0  0  0  0  0999 V2000
   13.1533   -5.2399   21.0682 C   0  0  0  0  0  0  0  0  0  0  0  0
   10.4729   -4.0295   17.6135 C   0  0  0  0  0  0  0  0  0  0  0  0
   10.4789   -4.3641   20.9564 C   0  0  0  0  0  0  0  0  0  0  0  0
    8.7421   -5.1412   16.3650 C   0  0  0  0  0  0  0  0  0  0  0  0
   11.4353   -2.9204   17.8044 C   0  0  0  0  0  0  0  0  0  0  0  0
   11.1529   -4.3028   22.1277 C   0  0  0  0  0  0  0  0  0  0  0  0
   11.1290   -4.8502   19.8052 C   0  0  0  0  0  0  0  0  0  0  0  0
   12.4329   -4.2159   24.4224 C   0  0  0  0  0  0  0  0  0  0  0  0
    3.4740   -9.0387   16.5022 C   0  0  0  0  0  0  0  0  0  0  0  0
    6.8384   -7.9290   17.5282 N   0  0  0  0  0  0  0  0  0  0  0  0
    9.4126   -5.9853   18.4899 C   0  0  0  0  0  0  0  0  0  0  0  0
    4.2064  -10.3242   18.3302 C   0  0  0  0  0  0  0  0  0  0  0  0
    9.6599   -4.1551   16.4796 N   0  0  0  0  0  0  0  0  0  0  0  0
    7.0644   -6.4612   15.7375 N   0  0  0  0  0  0  0  0  0  0  0  0
    5.3549   -9.6322   18.3190 C   0  0  0  0  0  0  0  0  0  0  0  0
   10.3704   -4.9638   18.6510 C   0  0  0  0  0  0  0  0  0  0  0  0
    5.5935   -8.6419   17.4234 C   0  0  0  0  0  0  0  0  0  0  0  0
   13.0726   -4.6648   23.3394 O   0  0  0  0  0  0  0  0  0  0  0  0
    8.5955   -6.0705   17.3996 C   0  0  0  0  0  0  0  0  0  0  0  0
    4.6223   -8.3832   16.5030 C   0  0  0  0  0  0  0  0  0  0  0  0
   12.4690   -5.2624   19.9024 C   0  0  0  0  0  0  0  0  0  0  0  0
    3.2548   -9.9919   17.4189 C   0  0  0  0  0  0  0  0  0  0  0  0
   12.4767   -4.7393   22.1790 C   0  0  0  0  0  0  0  0  0  0  0  0
    7.8593   -5.3772   15.3569 N   0  0  0  0  0  0  0  0  0  0  0  0
    7.4412   -6.9038   16.9283 C   0  0  0  0  0  0  0  0  0  0  0  0
  1 21  4  0
  1 23  4  0
  2  5  1  0
  2 13  4  0
  2 16  4  0
  3  6  4  0
  3  7  4  0
  4 13  4  0
  4 19  4  0
  4 24  4  0
  6 23  4  0
  7 16  1  0
  7 21  4  0
  8 18  1  0
  9 20  4  0
  9 22  4  0
 10 17  1  0
 10 25  1  0
 11 16  4  0
 11 19  4  0
 12 15  4  0
 12 22  4  0
 14 24  4  0
 14 25  4  0
 15 17  4  0
 17 20  4  0
 18 23  1  0
 19 25  4  0
M  END
$$$$

 Created by Python create_sdf_string function

 25 28  0  0  0  0  0  0  0  0999 V2000
   13.1533   -5.2399   21.0682 C   0  0  0  0  0  0  0  0  0  0  0  0
   10.4729   -4.0295   17.6135 C   0  0  0  0  0  0  0  0  0  0  0  0
   10.4789   -4.3641   20.9564 C   0  0  0  0  0  0  0  0  0  0  0  0
    8.7421   -5.1412   16.3650 C   0  0  0  0  0  0  0  0  0  0  0  0
   11.4353   -2.9204   17.8044 C   0  0  0  0  0  0  0  0  0  0  0  0
   11.1529   -4.3028   22.1277 C   0  0  0  0  0  0  0  0  0  0  0  0
   11.1290   -4.8502   19.8052 C   0  0  0  0  0  0  0  0  0  0  0  0
   12.4329   -4.2159   24.4224 C   0  0  0  0  0  0  0  0  0  0  0  0
    3.4740   -9.0387   16.5022 C   0  0  0  0  0  0  0  0  0  0  0  0
    6.8384   -7.9290   17.5282 N   0  0  0  0  0  0  0  0  0  0  0  0
    9.4126   -5.9853   18.4899 C   0  0  0  0  0  0  0  0  0  0  0  0
    4.2064  -10.3242   18.3302 C   0  0  0  0  0  0  0  0  0  0  0  0
    9.6599   -4.1551   16.4796 N   0  0  0  0  0  0  0  0  0  0  0  0
    7.0644   -6.4612   15.7375 N   0  0  0  0  0  0  0  0  0  0  0  0
    5.3549   -9.6322   18.3190 C   0  0  0  0  0  0  0  0  0  0  0  0
   10.3704   -4.9638   18.6510 C   0  0  0  0  0  0  0  0  0  0  0  0
    5.5935   -8.6419   17.4234 C   0  0  0  0  0  0  0  0  0  0  0  0
   13.0726   -4.6648   23.3394 O   0  0  0  0  0  0  0  0  0  0  0  0
    8.5955   -6.0705   17.3996 C   0  0  0  0  0  0  0  0  0  0  0  0
    4.6223   -8.3832   16.5030 C   0  0  0  0  0  0  0  0  0  0  0  0
   12.4690   -5.2624   19.9024 C   0  0  0  0  0  0  0  0  0  0  0  0
    3.2548   -9.9919   17.4189 C   0  0  0  0  0  0  0  0  0  0  0  0
   12.4767   -4.7393   22.1790 C   0  0  0  0  0  0  0  0  0  0  0  0
    7.8593   -5.3772   15.3569 N   0  0  0  0  0  0  0  0  0  0  0  0
    7.4412   -6.9038   16.9283 C   0  0  0  0  0  0  0  0  0  0  0  0
  1 21  4  0
  1 23  4  0
  2  5  1  0
  2 13  4  0
  2 16  4  0
  3  6  4  0
  3  7  4  0
  4 13  4  0
  4 19  4  0
  4 24  4  0
  6 23  4  0
  7 16  1  0
  7 21  4  0
  8 18  1  0
  9 20  4  0
  9 22  4  0
 10 17  1  0
 10 25  1  0
 11 16  4  0
 11 19  4  0
 12 15  4  0
 12 22  4  0
 14 24  4  0
 14 25  4  0
 15 17  4  0
 17 20  4  0
 18 23  1  0
 19 25  4  0
M  END
$$$$

 Created by Python create_sdf_string function

 25 28  0  0  0  0  0  0  0  0999 V2000
   13.1533   -5.2399   21.0682 C   0  0  0  0  0  0  0  0  0  0  0  0
   10.4729   -4.0295   17.6135 C   0  0  0  0  0  0  0  0  0  0  0  0
   10.4789   -4.3641   20.9564 C   0  0  0  0  0  0  0  0  0  0  0  0
    8.7421   -5.1412   16.3650 C   0  0  0  0  0  0  0  0  0  0  0  0
   11.4353   -2.9204   17.8044 C   0  0  0  0  0  0  0  0  0  0  0  0
   11.1529   -4.3028   22.1277 C   0  0  0  0  0  0  0  0  0  0  0  0
   11.1290   -4.8502   19.8052 C   0  0  0  0  0  0  0  0  0  0  0  0
   12.4329   -4.2159   24.4224 C   0  0  0  0  0  0  0  0  0  0  0  0
    3.4740   -9.0387   16.5022 C   0  0  0  0  0  0  0  0  0  0  0  0
    6.8384   -7.9290   17.5282 N   0  0  0  0  0  0  0  0  0  0  0  0
    9.4126   -5.9853   18.4899 C   0  0  0  0  0  0  0  0  0  0  0  0
    4.2064  -10.3242   18.3302 C   0  0  0  0  0  0  0  0  0  0  0  0
    9.6599   -4.1551   16.4796 N   0  0  0  0  0  0  0  0  0  0  0  0
    7.0644   -6.4612   15.7375 N   0  0  0  0  0  0  0  0  0  0  0  0
    5.3549   -9.6322   18.3190 C   0  0  0  0  0  0  0  0  0  0  0  0
   10.3704   -4.9638   18.6510 C   0  0  0  0  0  0  0  0  0  0  0  0
    5.5935   -8.6419   17.4234 C   0  0  0  0  0  0  0  0  0  0  0  0
   13.0726   -4.6648   23.3394 O   0  0  0  0  0  0  0  0  0  0  0  0
    8.5955   -6.0705   17.3996 C   0  0  0  0  0  0  0  0  0  0  0  0
    4.6223   -8.3832   16.5030 C   0  0  0  0  0  0  0  0  0  0  0  0
   12.4690   -5.2624   19.9024 C   0  0  0  0  0  0  0  0  0  0  0  0
    3.2548   -9.9919   17.4189 C   0  0  0  0  0  0  0  0  0  0  0  0
   12.4767   -4.7393   22.1790 C   0  0  0  0  0  0  0  0  0  0  0  0
    7.8593   -5.3772   15.3569 N   0  0  0  0  0  0  0  0  0  0  0  0
    7.4412   -6.9038   16.9283 C   0  0  0  0  0  0  0  0  0  0  0  0
  1 21  4  0
  1 23  4  0
  2  5  1  0
  2 13  4  0
  2 16  4  0
  3  6  4  0
  3  7  4  0
  4 13  4  0
  4 19  4  0
  4 24  4  0
  6 23  4  0
  7 16  1  0
  7 21  4  0
  8 18  1  0
  9 20  4  0
  9 22  4  0
 10 17  1  0
 10 25  1  0
 11 16  4  0
 11 19  4  0
 12 15  4  0
 12 22  4  0
 14 24  4  0
 14 25  4  0
 15 17  4  0
 17 20  4  0
 18 23  1  0
 19 25  4  0
M  END
$$$$

 Created by Python create_sdf_string function

 25 28  0  0  0  0  0  0  0  0999 V2000
   13.1533   -5.2399   21.0682 C   0  0  0  0  0  0  0  0  0  0  0  0
   10.4729   -4.0295   17.6135 C   0  0  0  0  0  0  0  0  0  0  0  0
   10.4789   -4.3641   20.9564 C   0  0  0  0  0  0  0  0  0  0  0  0
    8.7421   -5.1412   16.3650 C   0  0  0  0  0  0  0  0  0  0  0  0
   11.4353   -2.9204   17.8044 C   0  0  0  0  0  0  0  0  0  0  0  0
   11.1529   -4.3028   22.1277 C   0  0  0  0  0  0  0  0  0  0  0  0
   11.1290   -4.8502   19.8052 C   0  0  0  0  0  0  0  0  0  0  0  0
   12.4329   -4.2159   24.4224 C   0  0  0  0  0  0  0  0  0  0  0  0
    3.4740   -9.0387   16.5022 C   0  0  0  0  0  0  0  0  0  0  0  0
    6.8384   -7.9290   17.5282 N   0  0  0  0  0  0  0  0  0  0  0  0
    9.4126   -5.9853   18.4899 C   0  0  0  0  0  0  0  0  0  0  0  0
    4.2064  -10.3242   18.3302 C   0  0  0  0  0  0  0  0  0  0  0  0
    9.6599   -4.1551   16.4796 N   0  0  0  0  0  0  0  0  0  0  0  0
    7.0644   -6.4612   15.7375 N   0  0  0  0  0  0  0  0  0  0  0  0
    5.3549   -9.6322   18.3190 C   0  0  0  0  0  0  0  0  0  0  0  0
   10.3704   -4.9638   18.6510 C   0  0  0  0  0  0  0  0  0  0  0  0
    5.5935   -8.6419   17.4234 C   0  0  0  0  0  0  0  0  0  0  0  0
   13.0726   -4.6648   23.3394 O   0  0  0  0  0  0  0  0  0  0  0  0
    8.5955   -6.0705   17.3996 C   0  0  0  0  0  0  0  0  0  0  0  0
    4.6223   -8.3832   16.5030 C   0  0  0  0  0  0  0  0  0  0  0  0
   12.4690   -5.2624   19.9024 C   0  0  0  0  0  0  0  0  0  0  0  0
    3.2548   -9.9919   17.4189 C   0  0  0  0  0  0  0  0  0  0  0  0
   12.4767   -4.7393   22.1790 C   0  0  0  0  0  0  0  0  0  0  0  0
    7.8593   -5.3772   15.3569 N   0  0  0  0  0  0  0  0  0  0  0  0
    7.4412   -6.9038   16.9283 C   0  0  0  0  0  0  0  0  0  0  0  0
  1 21  4  0
  1 23  4  0
  2  5  1  0
  2 13  4  0
  2 16  4  0
  3  6  4  0
  3  7  4  0
  4 13  4  0
  4 19  4  0
  4 24  4  0
  6 23  4  0
  7 16  1  0
  7 21  4  0
  8 18  1  0
  9 20  4  0
  9 22  4  0
 10 17  1  0
 10 25  1  0
 11 16  4  0
 11 19  4  0
 12 15  4  0
 12 22  4  0
 14 24  4  0
 14 25  4  0
 15 17  4  0
 17 20  4  0
 18 23  1  0
 19 25  4  0
M  END
$$$$

 Created by Python create_sdf_string function

 25 28  0  0  0  0  0  0  0  0999 V2000
   13.1533   -5.2399   21.0682 C   0  0  0  0  0  0  0  0  0  0  0  0
   10.4729   -4.0295   17.6135 C   0  0  0  0  0  0  0  0  0  0  0  0
   10.4789   -4.3641   20.9564 C   0  0  0  0  0  0  0  0  0  0  0  0
    8.7421   -5.1412   16.3650 C   0  0  0  0  0  0  0  0  0  0  0  0
   11.4353   -2.9204   17.8044 C   0  0  0  0  0  0  0  0  0  0  0  0
   11.1529   -4.3028   22.1277 C   0  0  0  0  0  0  0  0  0  0  0  0
   11.1290   -4.8502   19.8052 C   0  0  0  0  0  0  0  0  0  0  0  0
   12.4329   -4.2159   24.4224 C   0  0  0  0  0  0  0  0  0  0  0  0
    3.4740   -9.0387   16.5022 C   0  0  0  0  0  0  0  0  0  0  0  0
    6.8384   -7.9290   17.5282 N   0  0  0  0  0  0  0  0  0  0  0  0
    9.4126   -5.9853   18.4899 C   0  0  0  0  0  0  0  0  0  0  0  0
    4.2064  -10.3242   18.3302 C   0  0  0  0  0  0  0  0  0  0  0  0
    9.6599   -4.1551   16.4796 N   0  0  0  0  0  0  0  0  0  0  0  0
    7.0644   -6.4612   15.7375 N   0  0  0  0  0  0  0  0  0  0  0  0
    5.3549   -9.6322   18.3190 C   0  0  0  0  0  0  0  0  0  0  0  0
   10.3704   -4.9638   18.6510 C   0  0  0  0  0  0  0  0  0  0  0  0
    5.5935   -8.6419   17.4234 C   0  0  0  0  0  0  0  0  0  0  0  0
   13.0726   -4.6648   23.3394 O   0  0  0  0  0  0  0  0  0  0  0  0
    8.5955   -6.0705   17.3996 C   0  0  0  0  0  0  0  0  0  0  0  0
    4.6223   -8.3832   16.5030 C   0  0  0  0  0  0  0  0  0  0  0  0
   12.4690   -5.2624   19.9024 C   0  0  0  0  0  0  0  0  0  0  0  0
    3.2548   -9.9919   17.4189 C   0  0  0  0  0  0  0  0  0  0  0  0
   12.4767   -4.7393   22.1790 C   0  0  0  0  0  0  0  0  0  0  0  0
    7.8593   -5.3772   15.3569 N   0  0  0  0  0  0  0  0  0  0  0  0
    7.4412   -6.9038   16.9283 C   0  0  0  0  0  0  0  0  0  0  0  0
  1 21  4  0
  1 23  4  0
  2  5  1  0
  2 13  4  0
  2 16  4  0
  3  6  4  0
  3  7  4  0
  4 13  4  0
  4 19  4  0
  4 24  4  0
  6 23  4  0
  7 16  1  0
  7 21  4  0
  8 18  1  0
  9 20  4  0
  9 22  4  0
 10 17  1  0
 10 25  1  0
 11 16  4  0
 11 19  4  0
 12 15  4  0
 12 22  4  0
 14 24  4  0
 14 25  4  0
 15 17  4  0
 17 20  4  0
 18 23  1  0
 19 25  4  0
M  END
$$$$

 Created by Python create_sdf_string function

 25 28  0  0  0  0  0  0  0  0999 V2000
   13.1533   -5.2399   21.0682 C   0  0  0  0  0  0  0  0  0  0  0  0
   10.4729   -4.0295   17.6135 C   0  0  0  0  0  0  0  0  0  0  0  0
   10.4789   -4.3641   20.9564 C   0  0  0  0  0  0  0  0  0  0  0  0
    8.7421   -5.1412   16.3650 C   0  0  0  0  0  0  0  0  0  0  0  0
   11.4353   -2.9204   17.8044 C   0  0  0  0  0  0  0  0  0  0  0  0
   11.1529   -4.3028   22.1277 C   0  0  0  0  0  0  0  0  0  0  0  0
   11.1290   -4.8502   19.8052 C   0  0  0  0  0  0  0  0  0  0  0  0
   12.4329   -4.2159   24.4224 C   0  0  0  0  0  0  0  0  0  0  0  0
    3.4740   -9.0387   16.5022 C   0  0  0  0  0  0  0  0  0  0  0  0
    6.8384   -7.9290   17.5282 N   0  0  0  0  0  0  0  0  0  0  0  0
    9.4126   -5.9853   18.4899 C   0  0  0  0  0  0  0  0  0  0  0  0
    4.2064  -10.3242   18.3302 C   0  0  0  0  0  0  0  0  0  0  0  0
    9.6599   -4.1551   16.4796 N   0  0  0  0  0  0  0  0  0  0  0  0
    7.0644   -6.4612   15.7375 N   0  0  0  0  0  0  0  0  0  0  0  0
    5.3549   -9.6322   18.3190 C   0  0  0  0  0  0  0  0  0  0  0  0
   10.3704   -4.9638   18.6510 C   0  0  0  0  0  0  0  0  0  0  0  0
    5.5935   -8.6419   17.4234 C   0  0  0  0  0  0  0  0  0  0  0  0
   13.0726   -4.6648   23.3394 O   0  0  0  0  0  0  0  0  0  0  0  0
    8.5955   -6.0705   17.3996 C   0  0  0  0  0  0  0  0  0  0  0  0
    4.6223   -8.3832   16.5030 C   0  0  0  0  0  0  0  0  0  0  0  0
   12.4690   -5.2624   19.9024 C   0  0  0  0  0  0  0  0  0  0  0  0
    3.2548   -9.9919   17.4189 C   0  0  0  0  0  0  0  0  0  0  0  0
   12.4767   -4.7393   22.1790 C   0  0  0  0  0  0  0  0  0  0  0  0
    7.8593   -5.3772   15.3569 N   0  0  0  0  0  0  0  0  0  0  0  0
    7.4412   -6.9038   16.9283 C   0  0  0  0  0  0  0  0  0  0  0  0
  1 21  4  0
  1 23  4  0
  2  5  1  0
  2 13  4  0
  2 16  4  0
  3  6  4  0
  3  7  4  0
  4 13  4  0
  4 19  4  0
  4 24  4  0
  6 23  4  0
  7 16  1  0
  7 21  4  0
  8 18  1  0
  9 20  4  0
  9 22  4  0
 10 17  1  0
 10 25  1  0
 11 16  4  0
 11 19  4  0
 12 15  4  0
 12 22  4  0
 14 24  4  0
 14 25  4  0
 15 17  4  0
 17 20  4  0
 18 23  1  0
 19 25  4  0
M  END
$$$$

 Created by Python create_sdf_string function

 25 28  0  0  0  0  0  0  0  0999 V2000
   13.1533   -5.2399   21.0682 C   0  0  0  0  0  0  0  0  0  0  0  0
   10.4729   -4.0295   17.6135 C   0  0  0  0  0  0  0  0  0  0  0  0
   10.4789   -4.3641   20.9564 C   0  0  0  0  0  0  0  0  0  0  0  0
    8.7421   -5.1412   16.3650 C   0  0  0  0  0  0  0  0  0  0  0  0
   11.4353   -2.9204   17.8044 C   0  0  0  0  0  0  0  0  0  0  0  0
   11.1529   -4.3028   22.1277 C   0  0  0  0  0  0  0  0  0  0  0  0
   11.1290   -4.8502   19.8052 C   0  0  0  0  0  0  0  0  0  0  0  0
   12.4329   -4.2159   24.4224 C   0  0  0  0  0  0  0  0  0  0  0  0
    3.4740   -9.0387   16.5022 C   0  0  0  0  0  0  0  0  0  0  0  0
    6.8384   -7.9290   17.5282 N   0  0  0  0  0  0  0  0  0  0  0  0
    9.4126   -5.9853   18.4899 C   0  0  0  0  0  0  0  0  0  0  0  0
    4.2064  -10.3242   18.3302 C   0  0  0  0  0  0  0  0  0  0  0  0
    9.6599   -4.1551   16.4796 N   0  0  0  0  0  0  0  0  0  0  0  0
    7.0644   -6.4612   15.7375 N   0  0  0  0  0  0  0  0  0  0  0  0
    5.3549   -9.6322   18.3190 C   0  0  0  0  0  0  0  0  0  0  0  0
   10.3704   -4.9638   18.6510 C   0  0  0  0  0  0  0  0  0  0  0  0
    5.5935   -8.6419   17.4234 C   0  0  0  0  0  0  0  0  0  0  0  0
   13.0726   -4.6648   23.3394 O   0  0  0  0  0  0  0  0  0  0  0  0
    8.5955   -6.0705   17.3996 C   0  0  0  0  0  0  0  0  0  0  0  0
    4.6223   -8.3832   16.5030 C   0  0  0  0  0  0  0  0  0  0  0  0
   12.4690   -5.2624   19.9024 C   0  0  0  0  0  0  0  0  0  0  0  0
    3.2548   -9.9919   17.4189 C   0  0  0  0  0  0  0  0  0  0  0  0
   12.4767   -4.7393   22.1790 C   0  0  0  0  0  0  0  0  0  0  0  0
    7.8593   -5.3772   15.3569 N   0  0  0  0  0  0  0  0  0  0  0  0
    7.4412   -6.9038   16.9283 C   0  0  0  0  0  0  0  0  0  0  0  0
  1 21  4  0
  1 23  4  0
  2  5  1  0
  2 13  4  0
  2 16  4  0
  3  6  4  0
  3  7  4  0
  4 13  4  0
  4 19  4  0
  4 24  4  0
  6 23  4  0
  7 16  1  0
  7 21  4  0
  8 18  1  0
  9 20  4  0
  9 22  4  0
 10 17  1  0
 10 25  1  0
 11 16  4  0
 11 19  4  0
 12 15  4  0
 12 22  4  0
 14 24  4  0
 14 25  4  0
 15 17  4  0
 17 20  4  0
 18 23  1  0
 19 25  4  0
M  END
$$$$

 Created by Python create_sdf_string function

 25 28  0  0  0  0  0  0  0  0999 V2000
   13.1533   -5.2399   21.0682 C   0  0  0  0  0  0  0  0  0  0  0  0
   10.4729   -4.0295   17.6135 C   0  0  0  0  0  0  0  0  0  0  0  0
   10.4789   -4.3641   20.9564 C   0  0  0  0  0  0  0  0  0  0  0  0
    8.7421   -5.1412   16.3650 C   0  0  0  0  0  0  0  0  0  0  0  0
   11.4353   -2.9204   17.8044 C   0  0  0  0  0  0  0  0  0  0  0  0
   11.1529   -4.3028   22.1277 C   0  0  0  0  0  0  0  0  0  0  0  0
   11.1290   -4.8502   19.8052 C   0  0  0  0  0  0  0  0  0  0  0  0
   12.4329   -4.2159   24.4224 C   0  0  0  0  0  0  0  0  0  0  0  0
    3.4740   -9.0387   16.5022 C   0  0  0  0  0  0  0  0  0  0  0  0
    6.8384   -7.9290   17.5282 N   0  0  0  0  0  0  0  0  0  0  0  0
    9.4126   -5.9853   18.4899 C   0  0  0  0  0  0  0  0  0  0  0  0
    4.2064  -10.3242   18.3302 C   0  0  0  0  0  0  0  0  0  0  0  0
    9.6599   -4.1551   16.4796 N   0  0  0  0  0  0  0  0  0  0  0  0
    7.0644   -6.4612   15.7375 N   0  0  0  0  0  0  0  0  0  0  0  0
    5.3549   -9.6322   18.3190 C   0  0  0  0  0  0  0  0  0  0  0  0
   10.3704   -4.9638   18.6510 C   0  0  0  0  0  0  0  0  0  0  0  0
    5.5935   -8.6419   17.4234 C   0  0  0  0  0  0  0  0  0  0  0  0
   13.0726   -4.6648   23.3394 O   0  0  0  0  0  0  0  0  0  0  0  0
    8.5955   -6.0705   17.3996 C   0  0  0  0  0  0  0  0  0  0  0  0
    4.6223   -8.3832   16.5030 C   0  0  0  0  0  0  0  0  0  0  0  0
   12.4690   -5.2624   19.9024 C   0  0  0  0  0  0  0  0  0  0  0  0
    3.2548   -9.9919   17.4189 C   0  0  0  0  0  0  0  0  0  0  0  0
   12.4767   -4.7393   22.1790 C   0  0  0  0  0  0  0  0  0  0  0  0
    7.8593   -5.3772   15.3569 N   0  0  0  0  0  0  0  0  0  0  0  0
    7.4412   -6.9038   16.9283 C   0  0  0  0  0  0  0  0  0  0  0  0
  1 21  4  0
  1 23  4  0
  2  5  1  0
  2 13  4  0
  2 16  4  0
  3  6  4  0
  3  7  4  0
  4 13  4  0
  4 19  4  0
  4 24  4  0
  6 23  4  0
  7 16  1  0
  7 21  4  0
  8 18  1  0
  9 20  4  0
  9 22  4  0
 10 17  1  0
 10 25  1  0
 11 16  4  0
 11 19  4  0
 12 15  4  0
 12 22  4  0
 14 24  4  0
 14 25  4  0
 15 17  4  0
 17 20  4  0
 18 23  1  0
 19 25  4  0
M  END
$$$$

 Created by Python create_sdf_string function

 25 28  0  0  0  0  0  0  0  0999 V2000
   13.1533   -5.2399   21.0682 C   0  0  0  0  0  0  0  0  0  0  0  0
   10.4729   -4.0295   17.6135 C   0  0  0  0  0  0  0  0  0  0  0  0
   10.4789   -4.3641   20.9564 C   0  0  0  0  0  0  0  0  0  0  0  0
    8.7421   -5.1412   16.3650 C   0  0  0  0  0  0  0  0  0  0  0  0
   11.4353   -2.9204   17.8044 C   0  0  0  0  0  0  0  0  0  0  0  0
   11.1529   -4.3028   22.1277 C   0  0  0  0  0  0  0  0  0  0  0  0
   11.1290   -4.8502   19.8052 C   0  0  0  0  0  0  0  0  0  0  0  0
   12.4329   -4.2159   24.4224 C   0  0  0  0  0  0  0  0  0  0  0  0
    3.4740   -9.0387   16.5022 C   0  0  0  0  0  0  0  0  0  0  0  0
    6.8384   -7.9290   17.5282 N   0  0  0  0  0  0  0  0  0  0  0  0
    9.4126   -5.9853   18.4899 C   0  0  0  0  0  0  0  0  0  0  0  0
    4.2064  -10.3242   18.3302 C   0  0  0  0  0  0  0  0  0  0  0  0
    9.6599   -4.1551   16.4796 N   0  0  0  0  0  0  0  0  0  0  0  0
    7.0644   -6.4612   15.7375 N   0  0  0  0  0  0  0  0  0  0  0  0
    5.3549   -9.6322   18.3190 C   0  0  0  0  0  0  0  0  0  0  0  0
   10.3704   -4.9638   18.6510 C   0  0  0  0  0  0  0  0  0  0  0  0
    5.5935   -8.6419   17.4234 C   0  0  0  0  0  0  0  0  0  0  0  0
   13.0726   -4.6648   23.3394 O   0  0  0  0  0  0  0  0  0  0  0  0
    8.5955   -6.0705   17.3996 C   0  0  0  0  0  0  0  0  0  0  0  0
    4.6223   -8.3832   16.5030 C   0  0  0  0  0  0  0  0  0  0  0  0
   12.4690   -5.2624   19.9024 C   0  0  0  0  0  0  0  0  0  0  0  0
    3.2548   -9.9919   17.4189 C   0  0  0  0  0  0  0  0  0  0  0  0
   12.4767   -4.7393   22.1790 C   0  0  0  0  0  0  0  0  0  0  0  0
    7.8593   -5.3772   15.3569 N   0  0  0  0  0  0  0  0  0  0  0  0
    7.4412   -6.9038   16.9283 C   0  0  0  0  0  0  0  0  0  0  0  0
  1 21  4  0
  1 23  4  0
  2  5  1  0
  2 13  4  0
  2 16  4  0
  3  6  4  0
  3  7  4  0
  4 13  4  0
  4 19  4  0
  4 24  4  0
  6 23  4  0
  7 16  1  0
  7 21  4  0
  8 18  1  0
  9 20  4  0
  9 22  4  0
 10 17  1  0
 10 25  1  0
 11 16  4  0
 11 19  4  0
 12 15  4  0
 12 22  4  0
 14 24  4  0
 14 25  4  0
 15 17  4  0
 17 20  4  0
 18 23  1  0
 19 25  4  0
M  END
$$$$

 Created by Python create_sdf_string function

 25 28  0  0  0  0  0  0  0  0999 V2000
   13.1533   -5.2399   21.0682 C   0  0  0  0  0  0  0  0  0  0  0  0
   10.4729   -4.0295   17.6135 C   0  0  0  0  0  0  0  0  0  0  0  0
   10.4789   -4.3641   20.9564 C   0  0  0  0  0  0  0  0  0  0  0  0
    8.7421   -5.1412   16.3650 C   0  0  0  0  0  0  0  0  0  0  0  0
   11.4353   -2.9204   17.8044 C   0  0  0  0  0  0  0  0  0  0  0  0
   11.1529   -4.3028   22.1277 C   0  0  0  0  0  0  0  0  0  0  0  0
   11.1290   -4.8502   19.8052 C   0  0  0  0  0  0  0  0  0  0  0  0
   12.4329   -4.2159   24.4224 C   0  0  0  0  0  0  0  0  0  0  0  0
    3.4740   -9.0387   16.5022 C   0  0  0  0  0  0  0  0  0  0  0  0
    6.8384   -7.9290   17.5282 N   0  0  0  0  0  0  0  0  0  0  0  0
    9.4126   -5.9853   18.4899 C   0  0  0  0  0  0  0  0  0  0  0  0
    4.2064  -10.3242   18.3302 C   0  0  0  0  0  0  0  0  0  0  0  0
    9.6599   -4.1551   16.4796 N   0  0  0  0  0  0  0  0  0  0  0  0
    7.0644   -6.4612   15.7375 N   0  0  0  0  0  0  0  0  0  0  0  0
    5.3549   -9.6322   18.3190 C   0  0  0  0  0  0  0  0  0  0  0  0
   10.3704   -4.9638   18.6510 C   0  0  0  0  0  0  0  0  0  0  0  0
    5.5935   -8.6419   17.4234 C   0  0  0  0  0  0  0  0  0  0  0  0
   13.0726   -4.6648   23.3394 O   0  0  0  0  0  0  0  0  0  0  0  0
    8.5955   -6.0705   17.3996 C   0  0  0  0  0  0  0  0  0  0  0  0
    4.6223   -8.3832   16.5030 C   0  0  0  0  0  0  0  0  0  0  0  0
   12.4690   -5.2624   19.9024 C   0  0  0  0  0  0  0  0  0  0  0  0
    3.2548   -9.9919   17.4189 C   0  0  0  0  0  0  0  0  0  0  0  0
   12.4767   -4.7393   22.1790 C   0  0  0  0  0  0  0  0  0  0  0  0
    7.8593   -5.3772   15.3569 N   0  0  0  0  0  0  0  0  0  0  0  0
    7.4412   -6.9038   16.9283 C   0  0  0  0  0  0  0  0  0  0  0  0
  1 21  4  0
  1 23  4  0
  2  5  1  0
  2 13  4  0
  2 16  4  0
  3  6  4  0
  3  7  4  0
  4 13  4  0
  4 19  4  0
  4 24  4  0
  6 23  4  0
  7 16  1  0
  7 21  4  0
  8 18  1  0
  9 20  4  0
  9 22  4  0
 10 17  1  0
 10 25  1  0
 11 16  4  0
 11 19  4  0
 12 15  4  0
 12 22  4  0
 14 24  4  0
 14 25  4  0
 15 17  4  0
 17 20  4  0
 18 23  1  0
 19 25  4  0
M  END
$$$$

 Created by Python create_sdf_string function

 25 28  0  0  0  0  0  0  0  0999 V2000
   13.1533   -5.2399   21.0682 C   0  0  0  0  0  0  0  0  0  0  0  0
   10.4729   -4.0295   17.6135 C   0  0  0  0  0  0  0  0  0  0  0  0
   10.4789   -4.3641   20.9564 C   0  0  0  0  0  0  0  0  0  0  0  0
    8.7421   -5.1412   16.3650 C   0  0  0  0  0  0  0  0  0  0  0  0
   11.4353   -2.9204   17.8044 C   0  0  0  0  0  0  0  0  0  0  0  0
   11.1529   -4.3028   22.1277 C   0  0  0  0  0  0  0  0  0  0  0  0
   11.1290   -4.8502   19.8052 C   0  0  0  0  0  0  0  0  0  0  0  0
   12.4329   -4.2159   24.4224 C   0  0  0  0  0  0  0  0  0  0  0  0
    3.4740   -9.0387   16.5022 C   0  0  0  0  0  0  0  0  0  0  0  0
    6.8384   -7.9290   17.5282 N   0  0  0  0  0  0  0  0  0  0  0  0
    9.4126   -5.9853   18.4899 C   0  0  0  0  0  0  0  0  0  0  0  0
    4.2064  -10.3242   18.3302 C   0  0  0  0  0  0  0  0  0  0  0  0
    9.6599   -4.1551   16.4796 N   0  0  0  0  0  0  0  0  0  0  0  0
    7.0644   -6.4612   15.7375 N   0  0  0  0  0  0  0  0  0  0  0  0
    5.3549   -9.6322   18.3190 C   0  0  0  0  0  0  0  0  0  0  0  0
   10.3704   -4.9638   18.6510 C   0  0  0  0  0  0  0  0  0  0  0  0
    5.5935   -8.6419   17.4234 C   0  0  0  0  0  0  0  0  0  0  0  0
   13.0726   -4.6648   23.3394 O   0  0  0  0  0  0  0  0  0  0  0  0
    8.5955   -6.0705   17.3996 C   0  0  0  0  0  0  0  0  0  0  0  0
    4.6223   -8.3832   16.5030 C   0  0  0  0  0  0  0  0  0  0  0  0
   12.4690   -5.2624   19.9024 C   0  0  0  0  0  0  0  0  0  0  0  0
    3.2548   -9.9919   17.4189 C   0  0  0  0  0  0  0  0  0  0  0  0
   12.4767   -4.7393   22.1790 C   0  0  0  0  0  0  0  0  0  0  0  0
    7.8593   -5.3772   15.3569 N   0  0  0  0  0  0  0  0  0  0  0  0
    7.4412   -6.9038   16.9283 C   0  0  0  0  0  0  0  0  0  0  0  0
  1 21  4  0
  1 23  4  0
  2  5  1  0
  2 13  4  0
  2 16  4  0
  3  6  4  0
  3  7  4  0
  4 13  4  0
  4 19  4  0
  4 24  4  0
  6 23  4  0
  7 16  1  0
  7 21  4  0
  8 18  1  0
  9 20  4  0
  9 22  4  0
 10 17  1  0
 10 25  1  0
 11 16  4  0
 11 19  4  0
 12 15  4  0
 12 22  4  0
 14 24  4  0
 14 25  4  0
 15 17  4  0
 17 20  4  0
 18 23  1  0
 19 25  4  0
M  END
$$$$

 Created by Python create_sdf_string function

 25 28  0  0  0  0  0  0  0  0999 V2000
   13.1533   -5.2399   21.0682 C   0  0  0  0  0  0  0  0  0  0  0  0
   10.4729   -4.0295   17.6135 C   0  0  0  0  0  0  0  0  0  0  0  0
   10.4789   -4.3641   20.9564 C   0  0  0  0  0  0  0  0  0  0  0  0
    8.7421   -5.1412   16.3650 C   0  0  0  0  0  0  0  0  0  0  0  0
   11.4353   -2.9204   17.8044 C   0  0  0  0  0  0  0  0  0  0  0  0
   11.1529   -4.3028   22.1277 C   0  0  0  0  0  0  0  0  0  0  0  0
   11.1290   -4.8502   19.8052 C   0  0  0  0  0  0  0  0  0  0  0  0
   12.4329   -4.2159   24.4224 C   0  0  0  0  0  0  0  0  0  0  0  0
    3.4740   -9.0387   16.5022 C   0  0  0  0  0  0  0  0  0  0  0  0
    6.8384   -7.9290   17.5282 N   0  0  0  0  0  0  0  0  0  0  0  0
    9.4126   -5.9853   18.4899 C   0  0  0  0  0  0  0  0  0  0  0  0
    4.2064  -10.3242   18.3302 C   0  0  0  0  0  0  0  0  0  0  0  0
    9.6599   -4.1551   16.4796 N   0  0  0  0  0  0  0  0  0  0  0  0
    7.0644   -6.4612   15.7375 N   0  0  0  0  0  0  0  0  0  0  0  0
    5.3549   -9.6322   18.3190 C   0  0  0  0  0  0  0  0  0  0  0  0
   10.3704   -4.9638   18.6510 C   0  0  0  0  0  0  0  0  0  0  0  0
    5.5935   -8.6419   17.4234 C   0  0  0  0  0  0  0  0  0  0  0  0
   13.0726   -4.6648   23.3394 O   0  0  0  0  0  0  0  0  0  0  0  0
    8.5955   -6.0705   17.3996 C   0  0  0  0  0  0  0  0  0  0  0  0
    4.6223   -8.3832   16.5030 C   0  0  0  0  0  0  0  0  0  0  0  0
   12.4690   -5.2624   19.9024 C   0  0  0  0  0  0  0  0  0  0  0  0
    3.2548   -9.9919   17.4189 C   0  0  0  0  0  0  0  0  0  0  0  0
   12.4767   -4.7393   22.1790 C   0  0  0  0  0  0  0  0  0  0  0  0
    7.8593   -5.3772   15.3569 N   0  0  0  0  0  0  0  0  0  0  0  0
    7.4412   -6.9038   16.9283 C   0  0  0  0  0  0  0  0  0  0  0  0
  1 21  4  0
  1 23  4  0
  2  5  1  0
  2 13  4  0
  2 16  4  0
  3  6  4  0
  3  7  4  0
  4 13  4  0
  4 19  4  0
  4 24  4  0
  6 23  4  0
  7 16  1  0
  7 21  4  0
  8 18  1  0
  9 20  4  0
  9 22  4  0
 10 17  1  0
 10 25  1  0
 11 16  4  0
 11 19  4  0
 12 15  4  0
 12 22  4  0
 14 24  4  0
 14 25  4  0
 15 17  4  0
 17 20  4  0
 18 23  1  0
 19 25  4  0
M  END
$$$$

 Created by Python create_sdf_string function

 25 28  0  0  0  0  0  0  0  0999 V2000
   13.1533   -5.2399   21.0682 C   0  0  0  0  0  0  0  0  0  0  0  0
   10.4729   -4.0295   17.6135 C   0  0  0  0  0  0  0  0  0  0  0  0
   10.4789   -4.3641   20.9564 C   0  0  0  0  0  0  0  0  0  0  0  0
    8.7421   -5.1412   16.3650 C   0  0  0  0  0  0  0  0  0  0  0  0
   11.4353   -2.9204   17.8044 C   0  0  0  0  0  0  0  0  0  0  0  0
   11.1529   -4.3028   22.1277 C   0  0  0  0  0  0  0  0  0  0  0  0
   11.1290   -4.8502   19.8052 C   0  0  0  0  0  0  0  0  0  0  0  0
   12.4329   -4.2159   24.4224 C   0  0  0  0  0  0  0  0  0  0  0  0
    3.4740   -9.0387   16.5022 C   0  0  0  0  0  0  0  0  0  0  0  0
    6.8384   -7.9290   17.5282 N   0  0  0  0  0  0  0  0  0  0  0  0
    9.4126   -5.9853   18.4899 C   0  0  0  0  0  0  0  0  0  0  0  0
    4.2064  -10.3242   18.3302 C   0  0  0  0  0  0  0  0  0  0  0  0
    9.6599   -4.1551   16.4796 N   0  0  0  0  0  0  0  0  0  0  0  0
    7.0644   -6.4612   15.7375 N   0  0  0  0  0  0  0  0  0  0  0  0
    5.3549   -9.6322   18.3190 C   0  0  0  0  0  0  0  0  0  0  0  0
   10.3704   -4.9638   18.6510 C   0  0  0  0  0  0  0  0  0  0  0  0
    5.5935   -8.6419   17.4234 C   0  0  0  0  0  0  0  0  0  0  0  0
   13.0726   -4.6648   23.3394 O   0  0  0  0  0  0  0  0  0  0  0  0
    8.5955   -6.0705   17.3996 C   0  0  0  0  0  0  0  0  0  0  0  0
    4.6223   -8.3832   16.5030 C   0  0  0  0  0  0  0  0  0  0  0  0
   12.4690   -5.2624   19.9024 C   0  0  0  0  0  0  0  0  0  0  0  0
    3.2548   -9.9919   17.4189 C   0  0  0  0  0  0  0  0  0  0  0  0
   12.4767   -4.7393   22.1790 C   0  0  0  0  0  0  0  0  0  0  0  0
    7.8593   -5.3772   15.3569 N   0  0  0  0  0  0  0  0  0  0  0  0
    7.4412   -6.9038   16.9283 C   0  0  0  0  0  0  0  0  0  0  0  0
  1 21  4  0
  1 23  4  0
  2  5  1  0
  2 13  4  0
  2 16  4  0
  3  6  4  0
  3  7  4  0
  4 13  4  0
  4 19  4  0
  4 24  4  0
  6 23  4  0
  7 16  1  0
  7 21  4  0
  8 18  1  0
  9 20  4  0
  9 22  4  0
 10 17  1  0
 10 25  1  0
 11 16  4  0
 11 19  4  0
 12 15  4  0
 12 22  4  0
 14 24  4  0
 14 25  4  0
 15 17  4  0
 17 20  4  0
 18 23  1  0
 19 25  4  0
M  END
$$$$

 Created by Python create_sdf_string function

 25 28  0  0  0  0  0  0  0  0999 V2000
   13.1533   -5.2399   21.0682 C   0  0  0  0  0  0  0  0  0  0  0  0
   10.4729   -4.0295   17.6135 C   0  0  0  0  0  0  0  0  0  0  0  0
   10.4789   -4.3641   20.9564 C   0  0  0  0  0  0  0  0  0  0  0  0
    8.7421   -5.1412   16.3650 C   0  0  0  0  0  0  0  0  0  0  0  0
   11.4353   -2.9204   17.8044 C   0  0  0  0  0  0  0  0  0  0  0  0
   11.1529   -4.3028   22.1277 C   0  0  0  0  0  0  0  0  0  0  0  0
   11.1290   -4.8502   19.8052 C   0  0  0  0  0  0  0  0  0  0  0  0
   12.4329   -4.2159   24.4224 C   0  0  0  0  0  0  0  0  0  0  0  0
    3.4740   -9.0387   16.5022 C   0  0  0  0  0  0  0  0  0  0  0  0
    6.8384   -7.9290   17.5282 N   0  0  0  0  0  0  0  0  0  0  0  0
    9.4126   -5.9853   18.4899 C   0  0  0  0  0  0  0  0  0  0  0  0
    4.2064  -10.3242   18.3302 C   0  0  0  0  0  0  0  0  0  0  0  0
    9.6599   -4.1551   16.4796 N   0  0  0  0  0  0  0  0  0  0  0  0
    7.0644   -6.4612   15.7375 N   0  0  0  0  0  0  0  0  0  0  0  0
    5.3549   -9.6322   18.3190 C   0  0  0  0  0  0  0  0  0  0  0  0
   10.3704   -4.9638   18.6510 C   0  0  0  0  0  0  0  0  0  0  0  0
    5.5935   -8.6419   17.4234 C   0  0  0  0  0  0  0  0  0  0  0  0
   13.0726   -4.6648   23.3394 O   0  0  0  0  0  0  0  0  0  0  0  0
    8.5955   -6.0705   17.3996 C   0  0  0  0  0  0  0  0  0  0  0  0
    4.6223   -8.3832   16.5030 C   0  0  0  0  0  0  0  0  0  0  0  0
   12.4690   -5.2624   19.9024 C   0  0  0  0  0  0  0  0  0  0  0  0
    3.2548   -9.9919   17.4189 C   0  0  0  0  0  0  0  0  0  0  0  0
   12.4767   -4.7393   22.1790 C   0  0  0  0  0  0  0  0  0  0  0  0
    7.8593   -5.3772   15.3569 N   0  0  0  0  0  0  0  0  0  0  0  0
    7.4412   -6.9038   16.9283 C   0  0  0  0  0  0  0  0  0  0  0  0
  1 21  4  0
  1 23  4  0
  2  5  1  0
  2 13  4  0
  2 16  4  0
  3  6  4  0
  3  7  4  0
  4 13  4  0
  4 19  4  0
  4 24  4  0
  6 23  4  0
  7 16  1  0
  7 21  4  0
  8 18  1  0
  9 20  4  0
  9 22  4  0
 10 17  1  0
 10 25  1  0
 11 16  4  0
 11 19  4  0
 12 15  4  0
 12 22  4  0
 14 24  4  0
 14 25  4  0
 15 17  4  0
 17 20  4  0
 18 23  1  0
 19 25  4  0
M  END
$$$$

 Created by Python create_sdf_string function

 25 28  0  0  0  0  0  0  0  0999 V2000
   13.1533   -5.2399   21.0682 C   0  0  0  0  0  0  0  0  0  0  0  0
   10.4729   -4.0295   17.6135 C   0  0  0  0  0  0  0  0  0  0  0  0
   10.4789   -4.3641   20.9564 C   0  0  0  0  0  0  0  0  0  0  0  0
    8.7421   -5.1412   16.3650 C   0  0  0  0  0  0  0  0  0  0  0  0
   11.4353   -2.9204   17.8044 C   0  0  0  0  0  0  0  0  0  0  0  0
   11.1529   -4.3028   22.1277 C   0  0  0  0  0  0  0  0  0  0  0  0
   11.1290   -4.8502   19.8052 C   0  0  0  0  0  0  0  0  0  0  0  0
   12.4329   -4.2159   24.4224 C   0  0  0  0  0  0  0  0  0  0  0  0
    3.4740   -9.0387   16.5022 C   0  0  0  0  0  0  0  0  0  0  0  0
    6.8384   -7.9290   17.5282 N   0  0  0  0  0  0  0  0  0  0  0  0
    9.4126   -5.9853   18.4899 C   0  0  0  0  0  0  0  0  0  0  0  0
    4.2064  -10.3242   18.3302 C   0  0  0  0  0  0  0  0  0  0  0  0
    9.6599   -4.1551   16.4796 N   0  0  0  0  0  0  0  0  0  0  0  0
    7.0644   -6.4612   15.7375 N   0  0  0  0  0  0  0  0  0  0  0  0
    5.3549   -9.6322   18.3190 C   0  0  0  0  0  0  0  0  0  0  0  0
   10.3704   -4.9638   18.6510 C   0  0  0  0  0  0  0  0  0  0  0  0
    5.5935   -8.6419   17.4234 C   0  0  0  0  0  0  0  0  0  0  0  0
   13.0726   -4.6648   23.3394 O   0  0  0  0  0  0  0  0  0  0  0  0
    8.5955   -6.0705   17.3996 C   0  0  0  0  0  0  0  0  0  0  0  0
    4.6223   -8.3832   16.5030 C   0  0  0  0  0  0  0  0  0  0  0  0
   12.4690   -5.2624   19.9024 C   0  0  0  0  0  0  0  0  0  0  0  0
    3.2548   -9.9919   17.4189 C   0  0  0  0  0  0  0  0  0  0  0  0
   12.4767   -4.7393   22.1790 C   0  0  0  0  0  0  0  0  0  0  0  0
    7.8593   -5.3772   15.3569 N   0  0  0  0  0  0  0  0  0  0  0  0
    7.4412   -6.9038   16.9283 C   0  0  0  0  0  0  0  0  0  0  0  0
  1 21  4  0
  1 23  4  0
  2  5  1  0
  2 13  4  0
  2 16  4  0
  3  6  4  0
  3  7  4  0
  4 13  4  0
  4 19  4  0
  4 24  4  0
  6 23  4  0
  7 16  1  0
  7 21  4  0
  8 18  1  0
  9 20  4  0
  9 22  4  0
 10 17  1  0
 10 25  1  0
 11 16  4  0
 11 19  4  0
 12 15  4  0
 12 22  4  0
 14 24  4  0
 14 25  4  0
 15 17  4  0
 17 20  4  0
 18 23  1  0
 19 25  4  0
M  END
$$$$

 Created by Python create_sdf_string function

 25 28  0  0  0  0  0  0  0  0999 V2000
   13.1533   -5.2399   21.0682 C   0  0  0  0  0  0  0  0  0  0  0  0
   10.4729   -4.0295   17.6135 C   0  0  0  0  0  0  0  0  0  0  0  0
   10.4789   -4.3641   20.9564 C   0  0  0  0  0  0  0  0  0  0  0  0
    8.7421   -5.1412   16.3650 C   0  0  0  0  0  0  0  0  0  0  0  0
   11.4353   -2.9204   17.8044 C   0  0  0  0  0  0  0  0  0  0  0  0
   11.1529   -4.3028   22.1277 C   0  0  0  0  0  0  0  0  0  0  0  0
   11.1290   -4.8502   19.8052 C   0  0  0  0  0  0  0  0  0  0  0  0
   12.4329   -4.2159   24.4224 C   0  0  0  0  0  0  0  0  0  0  0  0
    3.4740   -9.0387   16.5022 C   0  0  0  0  0  0  0  0  0  0  0  0
    6.8384   -7.9290   17.5282 N   0  0  0  0  0  0  0  0  0  0  0  0
    9.4126   -5.9853   18.4899 C   0  0  0  0  0  0  0  0  0  0  0  0
    4.2064  -10.3242   18.3302 C   0  0  0  0  0  0  0  0  0  0  0  0
    9.6599   -4.1551   16.4796 N   0  0  0  0  0  0  0  0  0  0  0  0
    7.0644   -6.4612   15.7375 N   0  0  0  0  0  0  0  0  0  0  0  0
    5.3549   -9.6322   18.3190 C   0  0  0  0  0  0  0  0  0  0  0  0
   10.3704   -4.9638   18.6510 C   0  0  0  0  0  0  0  0  0  0  0  0
    5.5935   -8.6419   17.4234 C   0  0  0  0  0  0  0  0  0  0  0  0
   13.0726   -4.6648   23.3394 O   0  0  0  0  0  0  0  0  0  0  0  0
    8.5955   -6.0705   17.3996 C   0  0  0  0  0  0  0  0  0  0  0  0
    4.6223   -8.3832   16.5030 C   0  0  0  0  0  0  0  0  0  0  0  0
   12.4690   -5.2624   19.9024 C   0  0  0  0  0  0  0  0  0  0  0  0
    3.2548   -9.9919   17.4189 C   0  0  0  0  0  0  0  0  0  0  0  0
   12.4767   -4.7393   22.1790 C   0  0  0  0  0  0  0  0  0  0  0  0
    7.8593   -5.3772   15.3569 N   0  0  0  0  0  0  0  0  0  0  0  0
    7.4412   -6.9038   16.9283 C   0  0  0  0  0  0  0  0  0  0  0  0
  1 21  4  0
  1 23  4  0
  2  5  1  0
  2 13  4  0
  2 16  4  0
  3  6  4  0
  3  7  4  0
  4 13  4  0
  4 19  4  0
  4 24  4  0
  6 23  4  0
  7 16  1  0
  7 21  4  0
  8 18  1  0
  9 20  4  0
  9 22  4  0
 10 17  1  0
 10 25  1  0
 11 16  4  0
 11 19  4  0
 12 15  4  0
 12 22  4  0
 14 24  4  0
 14 25  4  0
 15 17  4  0
 17 20  4  0
 18 23  1  0
 19 25  4  0
M  END
$$$$

 Created by Python create_sdf_string function

 25 28  0  0  0  0  0  0  0  0999 V2000
   13.1533   -5.2399   21.0682 C   0  0  0  0  0  0  0  0  0  0  0  0
   10.4729   -4.0295   17.6135 C   0  0  0  0  0  0  0  0  0  0  0  0
   10.4789   -4.3641   20.9564 C   0  0  0  0  0  0  0  0  0  0  0  0
    8.7421   -5.1412   16.3650 C   0  0  0  0  0  0  0  0  0  0  0  0
   11.4353   -2.9204   17.8044 C   0  0  0  0  0  0  0  0  0  0  0  0
   11.1529   -4.3028   22.1277 C   0  0  0  0  0  0  0  0  0  0  0  0
   11.1290   -4.8502   19.8052 C   0  0  0  0  0  0  0  0  0  0  0  0
   12.4329   -4.2159   24.4224 C   0  0  0  0  0  0  0  0  0  0  0  0
    3.4740   -9.0387   16.5022 C   0  0  0  0  0  0  0  0  0  0  0  0
    6.8384   -7.9290   17.5282 N   0  0  0  0  0  0  0  0  0  0  0  0
    9.4126   -5.9853   18.4899 C   0  0  0  0  0  0  0  0  0  0  0  0
    4.2064  -10.3242   18.3302 C   0  0  0  0  0  0  0  0  0  0  0  0
    9.6599   -4.1551   16.4796 N   0  0  0  0  0  0  0  0  0  0  0  0
    7.0644   -6.4612   15.7375 N   0  0  0  0  0  0  0  0  0  0  0  0
    5.3549   -9.6322   18.3190 C   0  0  0  0  0  0  0  0  0  0  0  0
   10.3704   -4.9638   18.6510 C   0  0  0  0  0  0  0  0  0  0  0  0
    5.5935   -8.6419   17.4234 C   0  0  0  0  0  0  0  0  0  0  0  0
   13.0726   -4.6648   23.3394 O   0  0  0  0  0  0  0  0  0  0  0  0
    8.5955   -6.0705   17.3996 C   0  0  0  0  0  0  0  0  0  0  0  0
    4.6223   -8.3832   16.5030 C   0  0  0  0  0  0  0  0  0  0  0  0
   12.4690   -5.2624   19.9024 C   0  0  0  0  0  0  0  0  0  0  0  0
    3.2548   -9.9919   17.4189 C   0  0  0  0  0  0  0  0  0  0  0  0
   12.4767   -4.7393   22.1790 C   0  0  0  0  0  0  0  0  0  0  0  0
    7.8593   -5.3772   15.3569 N   0  0  0  0  0  0  0  0  0  0  0  0
    7.4412   -6.9038   16.9283 C   0  0  0  0  0  0  0  0  0  0  0  0
  1 21  4  0
  1 23  4  0
  2  5  1  0
  2 13  4  0
  2 16  4  0
  3  6  4  0
  3  7  4  0
  4 13  4  0
  4 19  4  0
  4 24  4  0
  6 23  4  0
  7 16  1  0
  7 21  4  0
  8 18  1  0
  9 20  4  0
  9 22  4  0
 10 17  1  0
 10 25  1  0
 11 16  4  0
 11 19  4  0
 12 15  4  0
 12 22  4  0
 14 24  4  0
 14 25  4  0
 15 17  4  0
 17 20  4  0
 18 23  1  0
 19 25  4  0
M  END
$$$$

 Created by Python create_sdf_string function

 25 28  0  0  0  0  0  0  0  0999 V2000
   13.1533   -5.2399   21.0682 C   0  0  0  0  0  0  0  0  0  0  0  0
   10.4729   -4.0295   17.6135 C   0  0  0  0  0  0  0  0  0  0  0  0
   10.4789   -4.3641   20.9564 C   0  0  0  0  0  0  0  0  0  0  0  0
    8.7421   -5.1412   16.3650 C   0  0  0  0  0  0  0  0  0  0  0  0
   11.4353   -2.9204   17.8044 C   0  0  0  0  0  0  0  0  0  0  0  0
   11.1529   -4.3028   22.1277 C   0  0  0  0  0  0  0  0  0  0  0  0
   11.1290   -4.8502   19.8052 C   0  0  0  0  0  0  0  0  0  0  0  0
   12.4329   -4.2159   24.4224 C   0  0  0  0  0  0  0  0  0  0  0  0
    3.4740   -9.0387   16.5022 C   0  0  0  0  0  0  0  0  0  0  0  0
    6.8384   -7.9290   17.5282 N   0  0  0  0  0  0  0  0  0  0  0  0
    9.4126   -5.9853   18.4899 C   0  0  0  0  0  0  0  0  0  0  0  0
    4.2064  -10.3242   18.3302 C   0  0  0  0  0  0  0  0  0  0  0  0
    9.6599   -4.1551   16.4796 N   0  0  0  0  0  0  0  0  0  0  0  0
    7.0644   -6.4612   15.7375 N   0  0  0  0  0  0  0  0  0  0  0  0
    5.3549   -9.6322   18.3190 C   0  0  0  0  0  0  0  0  0  0  0  0
   10.3704   -4.9638   18.6510 C   0  0  0  0  0  0  0  0  0  0  0  0
    5.5935   -8.6419   17.4234 C   0  0  0  0  0  0  0  0  0  0  0  0
   13.0726   -4.6648   23.3394 O   0  0  0  0  0  0  0  0  0  0  0  0
    8.5955   -6.0705   17.3996 C   0  0  0  0  0  0  0  0  0  0  0  0
    4.6223   -8.3832   16.5030 C   0  0  0  0  0  0  0  0  0  0  0  0
   12.4690   -5.2624   19.9024 C   0  0  0  0  0  0  0  0  0  0  0  0
    3.2548   -9.9919   17.4189 C   0  0  0  0  0  0  0  0  0  0  0  0
   12.4767   -4.7393   22.1790 C   0  0  0  0  0  0  0  0  0  0  0  0
    7.8593   -5.3772   15.3569 N   0  0  0  0  0  0  0  0  0  0  0  0
    7.4412   -6.9038   16.9283 C   0  0  0  0  0  0  0  0  0  0  0  0
  1 21  4  0
  1 23  4  0
  2  5  1  0
  2 13  4  0
  2 16  4  0
  3  6  4  0
  3  7  4  0
  4 13  4  0
  4 19  4  0
  4 24  4  0
  6 23  4  0
  7 16  1  0
  7 21  4  0
  8 18  1  0
  9 20  4  0
  9 22  4  0
 10 17  1  0
 10 25  1  0
 11 16  4  0
 11 19  4  0
 12 15  4  0
 12 22  4  0
 14 24  4  0
 14 25  4  0
 15 17  4  0
 17 20  4  0
 18 23  1  0
 19 25  4  0
M  END
$$$$

 Created by Python create_sdf_string function

 25 28  0  0  0  0  0  0  0  0999 V2000
   13.1533   -5.2399   21.0682 C   0  0  0  0  0  0  0  0  0  0  0  0
   10.4729   -4.0295   17.6135 C   0  0  0  0  0  0  0  0  0  0  0  0
   10.4789   -4.3641   20.9564 C   0  0  0  0  0  0  0  0  0  0  0  0
    8.7421   -5.1412   16.3650 C   0  0  0  0  0  0  0  0  0  0  0  0
   11.4353   -2.9204   17.8044 C   0  0  0  0  0  0  0  0  0  0  0  0
   11.1529   -4.3028   22.1277 C   0  0  0  0  0  0  0  0  0  0  0  0
   11.1290   -4.8502   19.8052 C   0  0  0  0  0  0  0  0  0  0  0  0
   12.4329   -4.2159   24.4224 C   0  0  0  0  0  0  0  0  0  0  0  0
    3.4740   -9.0387   16.5022 C   0  0  0  0  0  0  0  0  0  0  0  0
    6.8384   -7.9290   17.5282 N   0  0  0  0  0  0  0  0  0  0  0  0
    9.4126   -5.9853   18.4899 C   0  0  0  0  0  0  0  0  0  0  0  0
    4.2064  -10.3242   18.3302 C   0  0  0  0  0  0  0  0  0  0  0  0
    9.6599   -4.1551   16.4796 N   0  0  0  0  0  0  0  0  0  0  0  0
    7.0644   -6.4612   15.7375 N   0  0  0  0  0  0  0  0  0  0  0  0
    5.3549   -9.6322   18.3190 C   0  0  0  0  0  0  0  0  0  0  0  0
   10.3704   -4.9638   18.6510 C   0  0  0  0  0  0  0  0  0  0  0  0
    5.5935   -8.6419   17.4234 C   0  0  0  0  0  0  0  0  0  0  0  0
   13.0726   -4.6648   23.3394 O   0  0  0  0  0  0  0  0  0  0  0  0
    8.5955   -6.0705   17.3996 C   0  0  0  0  0  0  0  0  0  0  0  0
    4.6223   -8.3832   16.5030 C   0  0  0  0  0  0  0  0  0  0  0  0
   12.4690   -5.2624   19.9024 C   0  0  0  0  0  0  0  0  0  0  0  0
    3.2548   -9.9919   17.4189 C   0  0  0  0  0  0  0  0  0  0  0  0
   12.4767   -4.7393   22.1790 C   0  0  0  0  0  0  0  0  0  0  0  0
    7.8593   -5.3772   15.3569 N   0  0  0  0  0  0  0  0  0  0  0  0
    7.4412   -6.9038   16.9283 C   0  0  0  0  0  0  0  0  0  0  0  0
  1 21  4  0
  1 23  4  0
  2  5  1  0
  2 13  4  0
  2 16  4  0
  3  6  4  0
  3  7  4  0
  4 13  4  0
  4 19  4  0
  4 24  4  0
  6 23  4  0
  7 16  1  0
  7 21  4  0
  8 18  1  0
  9 20  4  0
  9 22  4  0
 10 17  1  0
 10 25  1  0
 11 16  4  0
 11 19  4  0
 12 15  4  0
 12 22  4  0
 14 24  4  0
 14 25  4  0
 15 17  4  0
 17 20  4  0
 18 23  1  0
 19 25  4  0
M  END
$$$$

 Created by Python create_sdf_string function

 25 28  0  0  0  0  0  0  0  0999 V2000
   13.1533   -5.2399   21.0682 C   0  0  0  0  0  0  0  0  0  0  0  0
   10.4729   -4.0295   17.6135 C   0  0  0  0  0  0  0  0  0  0  0  0
   10.4789   -4.3641   20.9564 C   0  0  0  0  0  0  0  0  0  0  0  0
    8.7421   -5.1412   16.3650 C   0  0  0  0  0  0  0  0  0  0  0  0
   11.4353   -2.9204   17.8044 C   0  0  0  0  0  0  0  0  0  0  0  0
   11.1529   -4.3028   22.1277 C   0  0  0  0  0  0  0  0  0  0  0  0
   11.1290   -4.8502   19.8052 C   0  0  0  0  0  0  0  0  0  0  0  0
   12.4329   -4.2159   24.4224 C   0  0  0  0  0  0  0  0  0  0  0  0
    3.4740   -9.0387   16.5022 C   0  0  0  0  0  0  0  0  0  0  0  0
    6.8384   -7.9290   17.5282 N   0  0  0  0  0  0  0  0  0  0  0  0
    9.4126   -5.9853   18.4899 C   0  0  0  0  0  0  0  0  0  0  0  0
    4.2064  -10.3242   18.3302 C   0  0  0  0  0  0  0  0  0  0  0  0
    9.6599   -4.1551   16.4796 N   0  0  0  0  0  0  0  0  0  0  0  0
    7.0644   -6.4612   15.7375 N   0  0  0  0  0  0  0  0  0  0  0  0
    5.3549   -9.6322   18.3190 C   0  0  0  0  0  0  0  0  0  0  0  0
   10.3704   -4.9638   18.6510 C   0  0  0  0  0  0  0  0  0  0  0  0
    5.5935   -8.6419   17.4234 C   0  0  0  0  0  0  0  0  0  0  0  0
   13.0726   -4.6648   23.3394 O   0  0  0  0  0  0  0  0  0  0  0  0
    8.5955   -6.0705   17.3996 C   0  0  0  0  0  0  0  0  0  0  0  0
    4.6223   -8.3832   16.5030 C   0  0  0  0  0  0  0  0  0  0  0  0
   12.4690   -5.2624   19.9024 C   0  0  0  0  0  0  0  0  0  0  0  0
    3.2548   -9.9919   17.4189 C   0  0  0  0  0  0  0  0  0  0  0  0
   12.4767   -4.7393   22.1790 C   0  0  0  0  0  0  0  0  0  0  0  0
    7.8593   -5.3772   15.3569 N   0  0  0  0  0  0  0  0  0  0  0  0
    7.4412   -6.9038   16.9283 C   0  0  0  0  0  0  0  0  0  0  0  0
  1 21  4  0
  1 23  4  0
  2  5  1  0
  2 13  4  0
  2 16  4  0
  3  6  4  0
  3  7  4  0
  4 13  4  0
  4 19  4  0
  4 24  4  0
  6 23  4  0
  7 16  1  0
  7 21  4  0
  8 18  1  0
  9 20  4  0
  9 22  4  0
 10 17  1  0
 10 25  1  0
 11 16  4  0
 11 19  4  0
 12 15  4  0
 12 22  4  0
 14 24  4  0
 14 25  4  0
 15 17  4  0
 17 20  4  0
 18 23  1  0
 19 25  4  0
M  END
$$$$

 Created by Python create_sdf_string function

 25 28  0  0  0  0  0  0  0  0999 V2000
   13.1533   -5.2399   21.0682 C   0  0  0  0  0  0  0  0  0  0  0  0
   10.4729   -4.0295   17.6135 C   0  0  0  0  0  0  0  0  0  0  0  0
   10.4789   -4.3641   20.9564 C   0  0  0  0  0  0  0  0  0  0  0  0
    8.7421   -5.1412   16.3650 C   0  0  0  0  0  0  0  0  0  0  0  0
   11.4353   -2.9204   17.8044 C   0  0  0  0  0  0  0  0  0  0  0  0
   11.1529   -4.3028   22.1277 C   0  0  0  0  0  0  0  0  0  0  0  0
   11.1290   -4.8502   19.8052 C   0  0  0  0  0  0  0  0  0  0  0  0
   12.4329   -4.2159   24.4224 C   0  0  0  0  0  0  0  0  0  0  0  0
    3.4740   -9.0387   16.5022 C   0  0  0  0  0  0  0  0  0  0  0  0
    6.8384   -7.9290   17.5282 N   0  0  0  0  0  0  0  0  0  0  0  0
    9.4126   -5.9853   18.4899 C   0  0  0  0  0  0  0  0  0  0  0  0
    4.2064  -10.3242   18.3302 C   0  0  0  0  0  0  0  0  0  0  0  0
    9.6599   -4.1551   16.4796 N   0  0  0  0  0  0  0  0  0  0  0  0
    7.0644   -6.4612   15.7375 N   0  0  0  0  0  0  0  0  0  0  0  0
    5.3549   -9.6322   18.3190 C   0  0  0  0  0  0  0  0  0  0  0  0
   10.3704   -4.9638   18.6510 C   0  0  0  0  0  0  0  0  0  0  0  0
    5.5935   -8.6419   17.4234 C   0  0  0  0  0  0  0  0  0  0  0  0
   13.0726   -4.6648   23.3394 O   0  0  0  0  0  0  0  0  0  0  0  0
    8.5955   -6.0705   17.3996 C   0  0  0  0  0  0  0  0  0  0  0  0
    4.6223   -8.3832   16.5030 C   0  0  0  0  0  0  0  0  0  0  0  0
   12.4690   -5.2624   19.9024 C   0  0  0  0  0  0  0  0  0  0  0  0
    3.2548   -9.9919   17.4189 C   0  0  0  0  0  0  0  0  0  0  0  0
   12.4767   -4.7393   22.1790 C   0  0  0  0  0  0  0  0  0  0  0  0
    7.8593   -5.3772   15.3569 N   0  0  0  0  0  0  0  0  0  0  0  0
    7.4412   -6.9038   16.9283 C   0  0  0  0  0  0  0  0  0  0  0  0
  1 21  4  0
  1 23  4  0
  2  5  1  0
  2 13  4  0
  2 16  4  0
  3  6  4  0
  3  7  4  0
  4 13  4  0
  4 19  4  0
  4 24  4  0
  6 23  4  0
  7 16  1  0
  7 21  4  0
  8 18  1  0
  9 20  4  0
  9 22  4  0
 10 17  1  0
 10 25  1  0
 11 16  4  0
 11 19  4  0
 12 15  4  0
 12 22  4  0
 14 24  4  0
 14 25  4  0
 15 17  4  0
 17 20  4  0
 18 23  1  0
 19 25  4  0
M  END
$$$$

 Created by Python create_sdf_string function

 25 28  0  0  0  0  0  0  0  0999 V2000
   13.1533   -5.2399   21.0682 C   0  0  0  0  0  0  0  0  0  0  0  0
   10.4729   -4.0295   17.6135 C   0  0  0  0  0  0  0  0  0  0  0  0
   10.4789   -4.3641   20.9564 C   0  0  0  0  0  0  0  0  0  0  0  0
    8.7421   -5.1412   16.3650 C   0  0  0  0  0  0  0  0  0  0  0  0
   11.4353   -2.9204   17.8044 C   0  0  0  0  0  0  0  0  0  0  0  0
   11.1529   -4.3028   22.1277 C   0  0  0  0  0  0  0  0  0  0  0  0
   11.1290   -4.8502   19.8052 C   0  0  0  0  0  0  0  0  0  0  0  0
   12.4329   -4.2159   24.4224 C   0  0  0  0  0  0  0  0  0  0  0  0
    3.4740   -9.0387   16.5022 C   0  0  0  0  0  0  0  0  0  0  0  0
    6.8384   -7.9290   17.5282 N   0  0  0  0  0  0  0  0  0  0  0  0
    9.4126   -5.9853   18.4899 C   0  0  0  0  0  0  0  0  0  0  0  0
    4.2064  -10.3242   18.3302 C   0  0  0  0  0  0  0  0  0  0  0  0
    9.6599   -4.1551   16.4796 N   0  0  0  0  0  0  0  0  0  0  0  0
    7.0644   -6.4612   15.7375 N   0  0  0  0  0  0  0  0  0  0  0  0
    5.3549   -9.6322   18.3190 C   0  0  0  0  0  0  0  0  0  0  0  0
   10.3704   -4.9638   18.6510 C   0  0  0  0  0  0  0  0  0  0  0  0
    5.5935   -8.6419   17.4234 C   0  0  0  0  0  0  0  0  0  0  0  0
   13.0726   -4.6648   23.3394 O   0  0  0  0  0  0  0  0  0  0  0  0
    8.5955   -6.0705   17.3996 C   0  0  0  0  0  0  0  0  0  0  0  0
    4.6223   -8.3832   16.5030 C   0  0  0  0  0  0  0  0  0  0  0  0
   12.4690   -5.2624   19.9024 C   0  0  0  0  0  0  0  0  0  0  0  0
    3.2548   -9.9919   17.4189 C   0  0  0  0  0  0  0  0  0  0  0  0
   12.4767   -4.7393   22.1790 C   0  0  0  0  0  0  0  0  0  0  0  0
    7.8593   -5.3772   15.3569 N   0  0  0  0  0  0  0  0  0  0  0  0
    7.4412   -6.9038   16.9283 C   0  0  0  0  0  0  0  0  0  0  0  0
  1 21  4  0
  1 23  4  0
  2  5  1  0
  2 13  4  0
  2 16  4  0
  3  6  4  0
  3  7  4  0
  4 13  4  0
  4 19  4  0
  4 24  4  0
  6 23  4  0
  7 16  1  0
  7 21  4  0
  8 18  1  0
  9 20  4  0
  9 22  4  0
 10 17  1  0
 10 25  1  0
 11 16  4  0
 11 19  4  0
 12 15  4  0
 12 22  4  0
 14 24  4  0
 14 25  4  0
 15 17  4  0
 17 20  4  0
 18 23  1  0
 19 25  4  0
M  END
$$$$

 Created by Python create_sdf_string function

 25 28  0  0  0  0  0  0  0  0999 V2000
   13.1533   -5.2399   21.0682 C   0  0  0  0  0  0  0  0  0  0  0  0
   10.4729   -4.0295   17.6135 C   0  0  0  0  0  0  0  0  0  0  0  0
   10.4789   -4.3641   20.9564 C   0  0  0  0  0  0  0  0  0  0  0  0
    8.7421   -5.1412   16.3650 C   0  0  0  0  0  0  0  0  0  0  0  0
   11.4353   -2.9204   17.8044 C   0  0  0  0  0  0  0  0  0  0  0  0
   11.1529   -4.3028   22.1277 C   0  0  0  0  0  0  0  0  0  0  0  0
   11.1290   -4.8502   19.8052 C   0  0  0  0  0  0  0  0  0  0  0  0
   12.4329   -4.2159   24.4224 C   0  0  0  0  0  0  0  0  0  0  0  0
    3.4740   -9.0387   16.5022 C   0  0  0  0  0  0  0  0  0  0  0  0
    6.8384   -7.9290   17.5282 N   0  0  0  0  0  0  0  0  0  0  0  0
    9.4126   -5.9853   18.4899 C   0  0  0  0  0  0  0  0  0  0  0  0
    4.2064  -10.3242   18.3302 C   0  0  0  0  0  0  0  0  0  0  0  0
    9.6599   -4.1551   16.4796 N   0  0  0  0  0  0  0  0  0  0  0  0
    7.0644   -6.4612   15.7375 N   0  0  0  0  0  0  0  0  0  0  0  0
    5.3549   -9.6322   18.3190 C   0  0  0  0  0  0  0  0  0  0  0  0
   10.3704   -4.9638   18.6510 C   0  0  0  0  0  0  0  0  0  0  0  0
    5.5935   -8.6419   17.4234 C   0  0  0  0  0  0  0  0  0  0  0  0
   13.0726   -4.6648   23.3394 O   0  0  0  0  0  0  0  0  0  0  0  0
    8.5955   -6.0705   17.3996 C   0  0  0  0  0  0  0  0  0  0  0  0
    4.6223   -8.3832   16.5030 C   0  0  0  0  0  0  0  0  0  0  0  0
   12.4690   -5.2624   19.9024 C   0  0  0  0  0  0  0  0  0  0  0  0
    3.2548   -9.9919   17.4189 C   0  0  0  0  0  0  0  0  0  0  0  0
   12.4767   -4.7393   22.1790 C   0  0  0  0  0  0  0  0  0  0  0  0
    7.8593   -5.3772   15.3569 N   0  0  0  0  0  0  0  0  0  0  0  0
    7.4412   -6.9038   16.9283 C   0  0  0  0  0  0  0  0  0  0  0  0
  1 21  4  0
  1 23  4  0
  2  5  1  0
  2 13  4  0
  2 16  4  0
  3  6  4  0
  3  7  4  0
  4 13  4  0
  4 19  4  0
  4 24  4  0
  6 23  4  0
  7 16  1  0
  7 21  4  0
  8 18  1  0
  9 20  4  0
  9 22  4  0
 10 17  1  0
 10 25  1  0
 11 16  4  0
 11 19  4  0
 12 15  4  0
 12 22  4  0
 14 24  4  0
 14 25  4  0
 15 17  4  0
 17 20  4  0
 18 23  1  0
 19 25  4  0
M  END
$$$$

 Created by Python create_sdf_string function

 25 28  0  0  0  0  0  0  0  0999 V2000
   13.1533   -5.2399   21.0682 C   0  0  0  0  0  0  0  0  0  0  0  0
   10.4729   -4.0295   17.6135 C   0  0  0  0  0  0  0  0  0  0  0  0
   10.4789   -4.3641   20.9564 C   0  0  0  0  0  0  0  0  0  0  0  0
    8.7421   -5.1412   16.3650 C   0  0  0  0  0  0  0  0  0  0  0  0
   11.4353   -2.9204   17.8044 C   0  0  0  0  0  0  0  0  0  0  0  0
   11.1529   -4.3028   22.1277 C   0  0  0  0  0  0  0  0  0  0  0  0
   11.1290   -4.8502   19.8052 C   0  0  0  0  0  0  0  0  0  0  0  0
   12.4329   -4.2159   24.4224 C   0  0  0  0  0  0  0  0  0  0  0  0
    3.4740   -9.0387   16.5022 C   0  0  0  0  0  0  0  0  0  0  0  0
    6.8384   -7.9290   17.5282 N   0  0  0  0  0  0  0  0  0  0  0  0
    9.4126   -5.9853   18.4899 C   0  0  0  0  0  0  0  0  0  0  0  0
    4.2064  -10.3242   18.3302 C   0  0  0  0  0  0  0  0  0  0  0  0
    9.6599   -4.1551   16.4796 N   0  0  0  0  0  0  0  0  0  0  0  0
    7.0644   -6.4612   15.7375 N   0  0  0  0  0  0  0  0  0  0  0  0
    5.3549   -9.6322   18.3190 C   0  0  0  0  0  0  0  0  0  0  0  0
   10.3704   -4.9638   18.6510 C   0  0  0  0  0  0  0  0  0  0  0  0
    5.5935   -8.6419   17.4234 C   0  0  0  0  0  0  0  0  0  0  0  0
   13.0726   -4.6648   23.3394 O   0  0  0  0  0  0  0  0  0  0  0  0
    8.5955   -6.0705   17.3996 C   0  0  0  0  0  0  0  0  0  0  0  0
    4.6223   -8.3832   16.5030 C   0  0  0  0  0  0  0  0  0  0  0  0
   12.4690   -5.2624   19.9024 C   0  0  0  0  0  0  0  0  0  0  0  0
    3.2548   -9.9919   17.4189 C   0  0  0  0  0  0  0  0  0  0  0  0
   12.4767   -4.7393   22.1790 C   0  0  0  0  0  0  0  0  0  0  0  0
    7.8593   -5.3772   15.3569 N   0  0  0  0  0  0  0  0  0  0  0  0
    7.4412   -6.9038   16.9283 C   0  0  0  0  0  0  0  0  0  0  0  0
  1 21  4  0
  1 23  4  0
  2  5  1  0
  2 13  4  0
  2 16  4  0
  3  6  4  0
  3  7  4  0
  4 13  4  0
  4 19  4  0
  4 24  4  0
  6 23  4  0
  7 16  1  0
  7 21  4  0
  8 18  1  0
  9 20  4  0
  9 22  4  0
 10 17  1  0
 10 25  1  0
 11 16  4  0
 11 19  4  0
 12 15  4  0
 12 22  4  0
 14 24  4  0
 14 25  4  0
 15 17  4  0
 17 20  4  0
 18 23  1  0
 19 25  4  0
M  END
$$$$

 Created by Python create_sdf_string function

 25 28  0  0  0  0  0  0  0  0999 V2000
   13.1533   -5.2399   21.0682 C   0  0  0  0  0  0  0  0  0  0  0  0
   10.4729   -4.0295   17.6135 C   0  0  0  0  0  0  0  0  0  0  0  0
   10.4789   -4.3641   20.9564 C   0  0  0  0  0  0  0  0  0  0  0  0
    8.7421   -5.1412   16.3650 C   0  0  0  0  0  0  0  0  0  0  0  0
   11.4353   -2.9204   17.8044 C   0  0  0  0  0  0  0  0  0  0  0  0
   11.1529   -4.3028   22.1277 C   0  0  0  0  0  0  0  0  0  0  0  0
   11.1290   -4.8502   19.8052 C   0  0  0  0  0  0  0  0  0  0  0  0
   12.4329   -4.2159   24.4224 C   0  0  0  0  0  0  0  0  0  0  0  0
    3.4740   -9.0387   16.5022 C   0  0  0  0  0  0  0  0  0  0  0  0
    6.8384   -7.9290   17.5282 N   0  0  0  0  0  0  0  0  0  0  0  0
    9.4126   -5.9853   18.4899 C   0  0  0  0  0  0  0  0  0  0  0  0
    4.2064  -10.3242   18.3302 C   0  0  0  0  0  0  0  0  0  0  0  0
    9.6599   -4.1551   16.4796 N   0  0  0  0  0  0  0  0  0  0  0  0
    7.0644   -6.4612   15.7375 N   0  0  0  0  0  0  0  0  0  0  0  0
    5.3549   -9.6322   18.3190 C   0  0  0  0  0  0  0  0  0  0  0  0
   10.3704   -4.9638   18.6510 C   0  0  0  0  0  0  0  0  0  0  0  0
    5.5935   -8.6419   17.4234 C   0  0  0  0  0  0  0  0  0  0  0  0
   13.0726   -4.6648   23.3394 O   0  0  0  0  0  0  0  0  0  0  0  0
    8.5955   -6.0705   17.3996 C   0  0  0  0  0  0  0  0  0  0  0  0
    4.6223   -8.3832   16.5030 C   0  0  0  0  0  0  0  0  0  0  0  0
   12.4690   -5.2624   19.9024 C   0  0  0  0  0  0  0  0  0  0  0  0
    3.2548   -9.9919   17.4189 C   0  0  0  0  0  0  0  0  0  0  0  0
   12.4767   -4.7393   22.1790 C   0  0  0  0  0  0  0  0  0  0  0  0
    7.8593   -5.3772   15.3569 N   0  0  0  0  0  0  0  0  0  0  0  0
    7.4412   -6.9038   16.9283 C   0  0  0  0  0  0  0  0  0  0  0  0
  1 21  4  0
  1 23  4  0
  2  5  1  0
  2 13  4  0
  2 16  4  0
  3  6  4  0
  3  7  4  0
  4 13  4  0
  4 19  4  0
  4 24  4  0
  6 23  4  0
  7 16  1  0
  7 21  4  0
  8 18  1  0
  9 20  4  0
  9 22  4  0
 10 17  1  0
 10 25  1  0
 11 16  4  0
 11 19  4  0
 12 15  4  0
 12 22  4  0
 14 24  4  0
 14 25  4  0
 15 17  4  0
 17 20  4  0
 18 23  1  0
 19 25  4  0
M  END
$$$$

 Created by Python create_sdf_string function

 25 28  0  0  0  0  0  0  0  0999 V2000
   13.1533   -5.2399   21.0682 C   0  0  0  0  0  0  0  0  0  0  0  0
   10.4729   -4.0295   17.6135 C   0  0  0  0  0  0  0  0  0  0  0  0
   10.4789   -4.3641   20.9564 C   0  0  0  0  0  0  0  0  0  0  0  0
    8.7421   -5.1412   16.3650 C   0  0  0  0  0  0  0  0  0  0  0  0
   11.4353   -2.9204   17.8044 C   0  0  0  0  0  0  0  0  0  0  0  0
   11.1529   -4.3028   22.1277 C   0  0  0  0  0  0  0  0  0  0  0  0
   11.1290   -4.8502   19.8052 C   0  0  0  0  0  0  0  0  0  0  0  0
   12.4329   -4.2159   24.4224 C   0  0  0  0  0  0  0  0  0  0  0  0
    3.4740   -9.0387   16.5022 C   0  0  0  0  0  0  0  0  0  0  0  0
    6.8384   -7.9290   17.5282 N   0  0  0  0  0  0  0  0  0  0  0  0
    9.4126   -5.9853   18.4899 C   0  0  0  0  0  0  0  0  0  0  0  0
    4.2064  -10.3242   18.3302 C   0  0  0  0  0  0  0  0  0  0  0  0
    9.6599   -4.1551   16.4796 N   0  0  0  0  0  0  0  0  0  0  0  0
    7.0644   -6.4612   15.7375 N   0  0  0  0  0  0  0  0  0  0  0  0
    5.3549   -9.6322   18.3190 C   0  0  0  0  0  0  0  0  0  0  0  0
   10.3704   -4.9638   18.6510 C   0  0  0  0  0  0  0  0  0  0  0  0
    5.5935   -8.6419   17.4234 C   0  0  0  0  0  0  0  0  0  0  0  0
   13.0726   -4.6648   23.3394 O   0  0  0  0  0  0  0  0  0  0  0  0
    8.5955   -6.0705   17.3996 C   0  0  0  0  0  0  0  0  0  0  0  0
    4.6223   -8.3832   16.5030 C   0  0  0  0  0  0  0  0  0  0  0  0
   12.4690   -5.2624   19.9024 C   0  0  0  0  0  0  0  0  0  0  0  0
    3.2548   -9.9919   17.4189 C   0  0  0  0  0  0  0  0  0  0  0  0
   12.4767   -4.7393   22.1790 C   0  0  0  0  0  0  0  0  0  0  0  0
    7.8593   -5.3772   15.3569 N   0  0  0  0  0  0  0  0  0  0  0  0
    7.4412   -6.9038   16.9283 C   0  0  0  0  0  0  0  0  0  0  0  0
  1 21  4  0
  1 23  4  0
  2  5  1  0
  2 13  4  0
  2 16  4  0
  3  6  4  0
  3  7  4  0
  4 13  4  0
  4 19  4  0
  4 24  4  0
  6 23  4  0
  7 16  1  0
  7 21  4  0
  8 18  1  0
  9 20  4  0
  9 22  4  0
 10 17  1  0
 10 25  1  0
 11 16  4  0
 11 19  4  0
 12 15  4  0
 12 22  4  0
 14 24  4  0
 14 25  4  0
 15 17  4  0
 17 20  4  0
 18 23  1  0
 19 25  4  0
M  END
$$$$

 Created by Python create_sdf_string function

 25 28  0  0  0  0  0  0  0  0999 V2000
   13.1533   -5.2399   21.0682 C   0  0  0  0  0  0  0  0  0  0  0  0
   10.4729   -4.0295   17.6135 C   0  0  0  0  0  0  0  0  0  0  0  0
   10.4789   -4.3641   20.9564 C   0  0  0  0  0  0  0  0  0  0  0  0
    8.7421   -5.1412   16.3650 C   0  0  0  0  0  0  0  0  0  0  0  0
   11.4353   -2.9204   17.8044 C   0  0  0  0  0  0  0  0  0  0  0  0
   11.1529   -4.3028   22.1277 C   0  0  0  0  0  0  0  0  0  0  0  0
   11.1290   -4.8502   19.8052 C   0  0  0  0  0  0  0  0  0  0  0  0
   12.4329   -4.2159   24.4224 C   0  0  0  0  0  0  0  0  0  0  0  0
    3.4740   -9.0387   16.5022 C   0  0  0  0  0  0  0  0  0  0  0  0
    6.8384   -7.9290   17.5282 N   0  0  0  0  0  0  0  0  0  0  0  0
    9.4126   -5.9853   18.4899 C   0  0  0  0  0  0  0  0  0  0  0  0
    4.2064  -10.3242   18.3302 C   0  0  0  0  0  0  0  0  0  0  0  0
    9.6599   -4.1551   16.4796 N   0  0  0  0  0  0  0  0  0  0  0  0
    7.0644   -6.4612   15.7375 N   0  0  0  0  0  0  0  0  0  0  0  0
    5.3549   -9.6322   18.3190 C   0  0  0  0  0  0  0  0  0  0  0  0
   10.3704   -4.9638   18.6510 C   0  0  0  0  0  0  0  0  0  0  0  0
    5.5935   -8.6419   17.4234 C   0  0  0  0  0  0  0  0  0  0  0  0
   13.0726   -4.6648   23.3394 O   0  0  0  0  0  0  0  0  0  0  0  0
    8.5955   -6.0705   17.3996 C   0  0  0  0  0  0  0  0  0  0  0  0
    4.6223   -8.3832   16.5030 C   0  0  0  0  0  0  0  0  0  0  0  0
   12.4690   -5.2624   19.9024 C   0  0  0  0  0  0  0  0  0  0  0  0
    3.2548   -9.9919   17.4189 C   0  0  0  0  0  0  0  0  0  0  0  0
   12.4767   -4.7393   22.1790 C   0  0  0  0  0  0  0  0  0  0  0  0
    7.8593   -5.3772   15.3569 N   0  0  0  0  0  0  0  0  0  0  0  0
    7.4412   -6.9038   16.9283 C   0  0  0  0  0  0  0  0  0  0  0  0
  1 21  4  0
  1 23  4  0
  2  5  1  0
  2 13  4  0
  2 16  4  0
  3  6  4  0
  3  7  4  0
  4 13  4  0
  4 19  4  0
  4 24  4  0
  6 23  4  0
  7 16  1  0
  7 21  4  0
  8 18  1  0
  9 20  4  0
  9 22  4  0
 10 17  1  0
 10 25  1  0
 11 16  4  0
 11 19  4  0
 12 15  4  0
 12 22  4  0
 14 24  4  0
 14 25  4  0
 15 17  4  0
 17 20  4  0
 18 23  1  0
 19 25  4  0
M  END
$$$$

 Created by Python create_sdf_string function

 25 28  0  0  0  0  0  0  0  0999 V2000
   13.1533   -5.2399   21.0682 C   0  0  0  0  0  0  0  0  0  0  0  0
   10.4729   -4.0295   17.6135 C   0  0  0  0  0  0  0  0  0  0  0  0
   10.4789   -4.3641   20.9564 C   0  0  0  0  0  0  0  0  0  0  0  0
    8.7421   -5.1412   16.3650 C   0  0  0  0  0  0  0  0  0  0  0  0
   11.4353   -2.9204   17.8044 C   0  0  0  0  0  0  0  0  0  0  0  0
   11.1529   -4.3028   22.1277 C   0  0  0  0  0  0  0  0  0  0  0  0
   11.1290   -4.8502   19.8052 C   0  0  0  0  0  0  0  0  0  0  0  0
   12.4329   -4.2159   24.4224 C   0  0  0  0  0  0  0  0  0  0  0  0
    3.4740   -9.0387   16.5022 C   0  0  0  0  0  0  0  0  0  0  0  0
    6.8384   -7.9290   17.5282 N   0  0  0  0  0  0  0  0  0  0  0  0
    9.4126   -5.9853   18.4899 C   0  0  0  0  0  0  0  0  0  0  0  0
    4.2064  -10.3242   18.3302 C   0  0  0  0  0  0  0  0  0  0  0  0
    9.6599   -4.1551   16.4796 N   0  0  0  0  0  0  0  0  0  0  0  0
    7.0644   -6.4612   15.7375 N   0  0  0  0  0  0  0  0  0  0  0  0
    5.3549   -9.6322   18.3190 C   0  0  0  0  0  0  0  0  0  0  0  0
   10.3704   -4.9638   18.6510 C   0  0  0  0  0  0  0  0  0  0  0  0
    5.5935   -8.6419   17.4234 C   0  0  0  0  0  0  0  0  0  0  0  0
   13.0726   -4.6648   23.3394 O   0  0  0  0  0  0  0  0  0  0  0  0
    8.5955   -6.0705   17.3996 C   0  0  0  0  0  0  0  0  0  0  0  0
    4.6223   -8.3832   16.5030 C   0  0  0  0  0  0  0  0  0  0  0  0
   12.4690   -5.2624   19.9024 C   0  0  0  0  0  0  0  0  0  0  0  0
    3.2548   -9.9919   17.4189 C   0  0  0  0  0  0  0  0  0  0  0  0
   12.4767   -4.7393   22.1790 C   0  0  0  0  0  0  0  0  0  0  0  0
    7.8593   -5.3772   15.3569 N   0  0  0  0  0  0  0  0  0  0  0  0
    7.4412   -6.9038   16.9283 C   0  0  0  0  0  0  0  0  0  0  0  0
  1 21  4  0
  1 23  4  0
  2  5  1  0
  2 13  4  0
  2 16  4  0
  3  6  4  0
  3  7  4  0
  4 13  4  0
  4 19  4  0
  4 24  4  0
  6 23  4  0
  7 16  1  0
  7 21  4  0
  8 18  1  0
  9 20  4  0
  9 22  4  0
 10 17  1  0
 10 25  1  0
 11 16  4  0
 11 19  4  0
 12 15  4  0
 12 22  4  0
 14 24  4  0
 14 25  4  0
 15 17  4  0
 17 20  4  0
 18 23  1  0
 19 25  4  0
M  END
$$$$

 Created by Python create_sdf_string function

 25 28  0  0  0  0  0  0  0  0999 V2000
   13.1533   -5.2399   21.0682 C   0  0  0  0  0  0  0  0  0  0  0  0
   10.4729   -4.0295   17.6135 C   0  0  0  0  0  0  0  0  0  0  0  0
   10.4789   -4.3641   20.9564 C   0  0  0  0  0  0  0  0  0  0  0  0
    8.7421   -5.1412   16.3650 C   0  0  0  0  0  0  0  0  0  0  0  0
   11.4353   -2.9204   17.8044 C   0  0  0  0  0  0  0  0  0  0  0  0
   11.1529   -4.3028   22.1277 C   0  0  0  0  0  0  0  0  0  0  0  0
   11.1290   -4.8502   19.8052 C   0  0  0  0  0  0  0  0  0  0  0  0
   12.4329   -4.2159   24.4224 C   0  0  0  0  0  0  0  0  0  0  0  0
    3.4740   -9.0387   16.5022 C   0  0  0  0  0  0  0  0  0  0  0  0
    6.8384   -7.9290   17.5282 N   0  0  0  0  0  0  0  0  0  0  0  0
    9.4126   -5.9853   18.4899 C   0  0  0  0  0  0  0  0  0  0  0  0
    4.2064  -10.3242   18.3302 C   0  0  0  0  0  0  0  0  0  0  0  0
    9.6599   -4.1551   16.4796 N   0  0  0  0  0  0  0  0  0  0  0  0
    7.0644   -6.4612   15.7375 N   0  0  0  0  0  0  0  0  0  0  0  0
    5.3549   -9.6322   18.3190 C   0  0  0  0  0  0  0  0  0  0  0  0
   10.3704   -4.9638   18.6510 C   0  0  0  0  0  0  0  0  0  0  0  0
    5.5935   -8.6419   17.4234 C   0  0  0  0  0  0  0  0  0  0  0  0
   13.0726   -4.6648   23.3394 O   0  0  0  0  0  0  0  0  0  0  0  0
    8.5955   -6.0705   17.3996 C   0  0  0  0  0  0  0  0  0  0  0  0
    4.6223   -8.3832   16.5030 C   0  0  0  0  0  0  0  0  0  0  0  0
   12.4690   -5.2624   19.9024 C   0  0  0  0  0  0  0  0  0  0  0  0
    3.2548   -9.9919   17.4189 C   0  0  0  0  0  0  0  0  0  0  0  0
   12.4767   -4.7393   22.1790 C   0  0  0  0  0  0  0  0  0  0  0  0
    7.8593   -5.3772   15.3569 N   0  0  0  0  0  0  0  0  0  0  0  0
    7.4412   -6.9038   16.9283 C   0  0  0  0  0  0  0  0  0  0  0  0
  1 21  4  0
  1 23  4  0
  2  5  1  0
  2 13  4  0
  2 16  4  0
  3  6  4  0
  3  7  4  0
  4 13  4  0
  4 19  4  0
  4 24  4  0
  6 23  4  0
  7 16  1  0
  7 21  4  0
  8 18  1  0
  9 20  4  0
  9 22  4  0
 10 17  1  0
 10 25  1  0
 11 16  4  0
 11 19  4  0
 12 15  4  0
 12 22  4  0
 14 24  4  0
 14 25  4  0
 15 17  4  0
 17 20  4  0
 18 23  1  0
 19 25  4  0
M  END
$$$$

 Created by Python create_sdf_string function

 25 28  0  0  0  0  0  0  0  0999 V2000
   13.1533   -5.2399   21.0682 C   0  0  0  0  0  0  0  0  0  0  0  0
   10.4729   -4.0295   17.6135 C   0  0  0  0  0  0  0  0  0  0  0  0
   10.4789   -4.3641   20.9564 C   0  0  0  0  0  0  0  0  0  0  0  0
    8.7421   -5.1412   16.3650 C   0  0  0  0  0  0  0  0  0  0  0  0
   11.4353   -2.9204   17.8044 C   0  0  0  0  0  0  0  0  0  0  0  0
   11.1529   -4.3028   22.1277 C   0  0  0  0  0  0  0  0  0  0  0  0
   11.1290   -4.8502   19.8052 C   0  0  0  0  0  0  0  0  0  0  0  0
   12.4329   -4.2159   24.4224 C   0  0  0  0  0  0  0  0  0  0  0  0
    3.4740   -9.0387   16.5022 C   0  0  0  0  0  0  0  0  0  0  0  0
    6.8384   -7.9290   17.5282 N   0  0  0  0  0  0  0  0  0  0  0  0
    9.4126   -5.9853   18.4899 C   0  0  0  0  0  0  0  0  0  0  0  0
    4.2064  -10.3242   18.3302 C   0  0  0  0  0  0  0  0  0  0  0  0
    9.6599   -4.1551   16.4796 N   0  0  0  0  0  0  0  0  0  0  0  0
    7.0644   -6.4612   15.7375 N   0  0  0  0  0  0  0  0  0  0  0  0
    5.3549   -9.6322   18.3190 C   0  0  0  0  0  0  0  0  0  0  0  0
   10.3704   -4.9638   18.6510 C   0  0  0  0  0  0  0  0  0  0  0  0
    5.5935   -8.6419   17.4234 C   0  0  0  0  0  0  0  0  0  0  0  0
   13.0726   -4.6648   23.3394 O   0  0  0  0  0  0  0  0  0  0  0  0
    8.5955   -6.0705   17.3996 C   0  0  0  0  0  0  0  0  0  0  0  0
    4.6223   -8.3832   16.5030 C   0  0  0  0  0  0  0  0  0  0  0  0
   12.4690   -5.2624   19.9024 C   0  0  0  0  0  0  0  0  0  0  0  0
    3.2548   -9.9919   17.4189 C   0  0  0  0  0  0  0  0  0  0  0  0
   12.4767   -4.7393   22.1790 C   0  0  0  0  0  0  0  0  0  0  0  0
    7.8593   -5.3772   15.3569 N   0  0  0  0  0  0  0  0  0  0  0  0
    7.4412   -6.9038   16.9283 C   0  0  0  0  0  0  0  0  0  0  0  0
  1 21  4  0
  1 23  4  0
  2  5  1  0
  2 13  4  0
  2 16  4  0
  3  6  4  0
  3  7  4  0
  4 13  4  0
  4 19  4  0
  4 24  4  0
  6 23  4  0
  7 16  1  0
  7 21  4  0
  8 18  1  0
  9 20  4  0
  9 22  4  0
 10 17  1  0
 10 25  1  0
 11 16  4  0
 11 19  4  0
 12 15  4  0
 12 22  4  0
 14 24  4  0
 14 25  4  0
 15 17  4  0
 17 20  4  0
 18 23  1  0
 19 25  4  0
M  END
$$$$

 Created by Python create_sdf_string function

 25 28  0  0  0  0  0  0  0  0999 V2000
   13.1533   -5.2399   21.0682 C   0  0  0  0  0  0  0  0  0  0  0  0
   10.4729   -4.0295   17.6135 C   0  0  0  0  0  0  0  0  0  0  0  0
   10.4789   -4.3641   20.9564 C   0  0  0  0  0  0  0  0  0  0  0  0
    8.7421   -5.1412   16.3650 C   0  0  0  0  0  0  0  0  0  0  0  0
   11.4353   -2.9204   17.8044 C   0  0  0  0  0  0  0  0  0  0  0  0
   11.1529   -4.3028   22.1277 C   0  0  0  0  0  0  0  0  0  0  0  0
   11.1290   -4.8502   19.8052 C   0  0  0  0  0  0  0  0  0  0  0  0
   12.4329   -4.2159   24.4224 C   0  0  0  0  0  0  0  0  0  0  0  0
    3.4740   -9.0387   16.5022 C   0  0  0  0  0  0  0  0  0  0  0  0
    6.8384   -7.9290   17.5282 N   0  0  0  0  0  0  0  0  0  0  0  0
    9.4126   -5.9853   18.4899 C   0  0  0  0  0  0  0  0  0  0  0  0
    4.2064  -10.3242   18.3302 C   0  0  0  0  0  0  0  0  0  0  0  0
    9.6599   -4.1551   16.4796 N   0  0  0  0  0  0  0  0  0  0  0  0
    7.0644   -6.4612   15.7375 N   0  0  0  0  0  0  0  0  0  0  0  0
    5.3549   -9.6322   18.3190 C   0  0  0  0  0  0  0  0  0  0  0  0
   10.3704   -4.9638   18.6510 C   0  0  0  0  0  0  0  0  0  0  0  0
    5.5935   -8.6419   17.4234 C   0  0  0  0  0  0  0  0  0  0  0  0
   13.0726   -4.6648   23.3394 O   0  0  0  0  0  0  0  0  0  0  0  0
    8.5955   -6.0705   17.3996 C   0  0  0  0  0  0  0  0  0  0  0  0
    4.6223   -8.3832   16.5030 C   0  0  0  0  0  0  0  0  0  0  0  0
   12.4690   -5.2624   19.9024 C   0  0  0  0  0  0  0  0  0  0  0  0
    3.2548   -9.9919   17.4189 C   0  0  0  0  0  0  0  0  0  0  0  0
   12.4767   -4.7393   22.1790 C   0  0  0  0  0  0  0  0  0  0  0  0
    7.8593   -5.3772   15.3569 N   0  0  0  0  0  0  0  0  0  0  0  0
    7.4412   -6.9038   16.9283 C   0  0  0  0  0  0  0  0  0  0  0  0
  1 21  4  0
  1 23  4  0
  2  5  1  0
  2 13  4  0
  2 16  4  0
  3  6  4  0
  3  7  4  0
  4 13  4  0
  4 19  4  0
  4 24  4  0
  6 23  4  0
  7 16  1  0
  7 21  4  0
  8 18  1  0
  9 20  4  0
  9 22  4  0
 10 17  1  0
 10 25  1  0
 11 16  4  0
 11 19  4  0
 12 15  4  0
 12 22  4  0
 14 24  4  0
 14 25  4  0
 15 17  4  0
 17 20  4  0
 18 23  1  0
 19 25  4  0
M  END
$$$$

 Created by Python create_sdf_string function

 25 28  0  0  0  0  0  0  0  0999 V2000
   13.1533   -5.2399   21.0682 C   0  0  0  0  0  0  0  0  0  0  0  0
   10.4729   -4.0295   17.6135 C   0  0  0  0  0  0  0  0  0  0  0  0
   10.4789   -4.3641   20.9564 C   0  0  0  0  0  0  0  0  0  0  0  0
    8.7421   -5.1412   16.3650 C   0  0  0  0  0  0  0  0  0  0  0  0
   11.4353   -2.9204   17.8044 C   0  0  0  0  0  0  0  0  0  0  0  0
   11.1529   -4.3028   22.1277 C   0  0  0  0  0  0  0  0  0  0  0  0
   11.1290   -4.8502   19.8052 C   0  0  0  0  0  0  0  0  0  0  0  0
   12.4329   -4.2159   24.4224 C   0  0  0  0  0  0  0  0  0  0  0  0
    3.4740   -9.0387   16.5022 C   0  0  0  0  0  0  0  0  0  0  0  0
    6.8384   -7.9290   17.5282 N   0  0  0  0  0  0  0  0  0  0  0  0
    9.4126   -5.9853   18.4899 C   0  0  0  0  0  0  0  0  0  0  0  0
    4.2064  -10.3242   18.3302 C   0  0  0  0  0  0  0  0  0  0  0  0
    9.6599   -4.1551   16.4796 N   0  0  0  0  0  0  0  0  0  0  0  0
    7.0644   -6.4612   15.7375 N   0  0  0  0  0  0  0  0  0  0  0  0
    5.3549   -9.6322   18.3190 C   0  0  0  0  0  0  0  0  0  0  0  0
   10.3704   -4.9638   18.6510 C   0  0  0  0  0  0  0  0  0  0  0  0
    5.5935   -8.6419   17.4234 C   0  0  0  0  0  0  0  0  0  0  0  0
   13.0726   -4.6648   23.3394 O   0  0  0  0  0  0  0  0  0  0  0  0
    8.5955   -6.0705   17.3996 C   0  0  0  0  0  0  0  0  0  0  0  0
    4.6223   -8.3832   16.5030 C   0  0  0  0  0  0  0  0  0  0  0  0
   12.4690   -5.2624   19.9024 C   0  0  0  0  0  0  0  0  0  0  0  0
    3.2548   -9.9919   17.4189 C   0  0  0  0  0  0  0  0  0  0  0  0
   12.4767   -4.7393   22.1790 C   0  0  0  0  0  0  0  0  0  0  0  0
    7.8593   -5.3772   15.3569 N   0  0  0  0  0  0  0  0  0  0  0  0
    7.4412   -6.9038   16.9283 C   0  0  0  0  0  0  0  0  0  0  0  0
  1 21  4  0
  1 23  4  0
  2  5  1  0
  2 13  4  0
  2 16  4  0
  3  6  4  0
  3  7  4  0
  4 13  4  0
  4 19  4  0
  4 24  4  0
  6 23  4  0
  7 16  1  0
  7 21  4  0
  8 18  1  0
  9 20  4  0
  9 22  4  0
 10 17  1  0
 10 25  1  0
 11 16  4  0
 11 19  4  0
 12 15  4  0
 12 22  4  0
 14 24  4  0
 14 25  4  0
 15 17  4  0
 17 20  4  0
 18 23  1  0
 19 25  4  0
M  END
$$$$

 Created by Python create_sdf_string function

 25 28  0  0  0  0  0  0  0  0999 V2000
   13.1533   -5.2399   21.0682 C   0  0  0  0  0  0  0  0  0  0  0  0
   10.4729   -4.0295   17.6135 C   0  0  0  0  0  0  0  0  0  0  0  0
   10.4789   -4.3641   20.9564 C   0  0  0  0  0  0  0  0  0  0  0  0
    8.7421   -5.1412   16.3650 C   0  0  0  0  0  0  0  0  0  0  0  0
   11.4353   -2.9204   17.8044 C   0  0  0  0  0  0  0  0  0  0  0  0
   11.1529   -4.3028   22.1277 C   0  0  0  0  0  0  0  0  0  0  0  0
   11.1290   -4.8502   19.8052 C   0  0  0  0  0  0  0  0  0  0  0  0
   12.4329   -4.2159   24.4224 C   0  0  0  0  0  0  0  0  0  0  0  0
    3.4740   -9.0387   16.5022 C   0  0  0  0  0  0  0  0  0  0  0  0
    6.8384   -7.9290   17.5282 N   0  0  0  0  0  0  0  0  0  0  0  0
    9.4126   -5.9853   18.4899 C   0  0  0  0  0  0  0  0  0  0  0  0
    4.2064  -10.3242   18.3302 C   0  0  0  0  0  0  0  0  0  0  0  0
    9.6599   -4.1551   16.4796 N   0  0  0  0  0  0  0  0  0  0  0  0
    7.0644   -6.4612   15.7375 N   0  0  0  0  0  0  0  0  0  0  0  0
    5.3549   -9.6322   18.3190 C   0  0  0  0  0  0  0  0  0  0  0  0
   10.3704   -4.9638   18.6510 C   0  0  0  0  0  0  0  0  0  0  0  0
    5.5935   -8.6419   17.4234 C   0  0  0  0  0  0  0  0  0  0  0  0
   13.0726   -4.6648   23.3394 O   0  0  0  0  0  0  0  0  0  0  0  0
    8.5955   -6.0705   17.3996 C   0  0  0  0  0  0  0  0  0  0  0  0
    4.6223   -8.3832   16.5030 C   0  0  0  0  0  0  0  0  0  0  0  0
   12.4690   -5.2624   19.9024 C   0  0  0  0  0  0  0  0  0  0  0  0
    3.2548   -9.9919   17.4189 C   0  0  0  0  0  0  0  0  0  0  0  0
   12.4767   -4.7393   22.1790 C   0  0  0  0  0  0  0  0  0  0  0  0
    7.8593   -5.3772   15.3569 N   0  0  0  0  0  0  0  0  0  0  0  0
    7.4412   -6.9038   16.9283 C   0  0  0  0  0  0  0  0  0  0  0  0
  1 21  4  0
  1 23  4  0
  2  5  1  0
  2 13  4  0
  2 16  4  0
  3  6  4  0
  3  7  4  0
  4 13  4  0
  4 19  4  0
  4 24  4  0
  6 23  4  0
  7 16  1  0
  7 21  4  0
  8 18  1  0
  9 20  4  0
  9 22  4  0
 10 17  1  0
 10 25  1  0
 11 16  4  0
 11 19  4  0
 12 15  4  0
 12 22  4  0
 14 24  4  0
 14 25  4  0
 15 17  4  0
 17 20  4  0
 18 23  1  0
 19 25  4  0
M  END
$$$$

 Created by Python create_sdf_string function

 25 28  0  0  0  0  0  0  0  0999 V2000
   13.1533   -5.2399   21.0682 C   0  0  0  0  0  0  0  0  0  0  0  0
   10.4729   -4.0295   17.6135 C   0  0  0  0  0  0  0  0  0  0  0  0
   10.4789   -4.3641   20.9564 C   0  0  0  0  0  0  0  0  0  0  0  0
    8.7421   -5.1412   16.3650 C   0  0  0  0  0  0  0  0  0  0  0  0
   11.4353   -2.9204   17.8044 C   0  0  0  0  0  0  0  0  0  0  0  0
   11.1529   -4.3028   22.1277 C   0  0  0  0  0  0  0  0  0  0  0  0
   11.1290   -4.8502   19.8052 C   0  0  0  0  0  0  0  0  0  0  0  0
   12.4329   -4.2159   24.4224 C   0  0  0  0  0  0  0  0  0  0  0  0
    3.4740   -9.0387   16.5022 C   0  0  0  0  0  0  0  0  0  0  0  0
    6.8384   -7.9290   17.5282 N   0  0  0  0  0  0  0  0  0  0  0  0
    9.4126   -5.9853   18.4899 C   0  0  0  0  0  0  0  0  0  0  0  0
    4.2064  -10.3242   18.3302 C   0  0  0  0  0  0  0  0  0  0  0  0
    9.6599   -4.1551   16.4796 N   0  0  0  0  0  0  0  0  0  0  0  0
    7.0644   -6.4612   15.7375 N   0  0  0  0  0  0  0  0  0  0  0  0
    5.3549   -9.6322   18.3190 C   0  0  0  0  0  0  0  0  0  0  0  0
   10.3704   -4.9638   18.6510 C   0  0  0  0  0  0  0  0  0  0  0  0
    5.5935   -8.6419   17.4234 C   0  0  0  0  0  0  0  0  0  0  0  0
   13.0726   -4.6648   23.3394 O   0  0  0  0  0  0  0  0  0  0  0  0
    8.5955   -6.0705   17.3996 C   0  0  0  0  0  0  0  0  0  0  0  0
    4.6223   -8.3832   16.5030 C   0  0  0  0  0  0  0  0  0  0  0  0
   12.4690   -5.2624   19.9024 C   0  0  0  0  0  0  0  0  0  0  0  0
    3.2548   -9.9919   17.4189 C   0  0  0  0  0  0  0  0  0  0  0  0
   12.4767   -4.7393   22.1790 C   0  0  0  0  0  0  0  0  0  0  0  0
    7.8593   -5.3772   15.3569 N   0  0  0  0  0  0  0  0  0  0  0  0
    7.4412   -6.9038   16.9283 C   0  0  0  0  0  0  0  0  0  0  0  0
  1 21  4  0
  1 23  4  0
  2  5  1  0
  2 13  4  0
  2 16  4  0
  3  6  4  0
  3  7  4  0
  4 13  4  0
  4 19  4  0
  4 24  4  0
  6 23  4  0
  7 16  1  0
  7 21  4  0
  8 18  1  0
  9 20  4  0
  9 22  4  0
 10 17  1  0
 10 25  1  0
 11 16  4  0
 11 19  4  0
 12 15  4  0
 12 22  4  0
 14 24  4  0
 14 25  4  0
 15 17  4  0
 17 20  4  0
 18 23  1  0
 19 25  4  0
M  END
$$$$

 Created by Python create_sdf_string function

 25 28  0  0  0  0  0  0  0  0999 V2000
   13.1533   -5.2399   21.0682 C   0  0  0  0  0  0  0  0  0  0  0  0
   10.4729   -4.0295   17.6135 C   0  0  0  0  0  0  0  0  0  0  0  0
   10.4789   -4.3641   20.9564 C   0  0  0  0  0  0  0  0  0  0  0  0
    8.7421   -5.1412   16.3650 C   0  0  0  0  0  0  0  0  0  0  0  0
   11.4353   -2.9204   17.8044 C   0  0  0  0  0  0  0  0  0  0  0  0
   11.1529   -4.3028   22.1277 C   0  0  0  0  0  0  0  0  0  0  0  0
   11.1290   -4.8502   19.8052 C   0  0  0  0  0  0  0  0  0  0  0  0
   12.4329   -4.2159   24.4224 C   0  0  0  0  0  0  0  0  0  0  0  0
    3.4740   -9.0387   16.5022 C   0  0  0  0  0  0  0  0  0  0  0  0
    6.8384   -7.9290   17.5282 N   0  0  0  0  0  0  0  0  0  0  0  0
    9.4126   -5.9853   18.4899 C   0  0  0  0  0  0  0  0  0  0  0  0
    4.2064  -10.3242   18.3302 C   0  0  0  0  0  0  0  0  0  0  0  0
    9.6599   -4.1551   16.4796 N   0  0  0  0  0  0  0  0  0  0  0  0
    7.0644   -6.4612   15.7375 N   0  0  0  0  0  0  0  0  0  0  0  0
    5.3549   -9.6322   18.3190 C   0  0  0  0  0  0  0  0  0  0  0  0
   10.3704   -4.9638   18.6510 C   0  0  0  0  0  0  0  0  0  0  0  0
    5.5935   -8.6419   17.4234 C   0  0  0  0  0  0  0  0  0  0  0  0
   13.0726   -4.6648   23.3394 O   0  0  0  0  0  0  0  0  0  0  0  0
    8.5955   -6.0705   17.3996 C   0  0  0  0  0  0  0  0  0  0  0  0
    4.6223   -8.3832   16.5030 C   0  0  0  0  0  0  0  0  0  0  0  0
   12.4690   -5.2624   19.9024 C   0  0  0  0  0  0  0  0  0  0  0  0
    3.2548   -9.9919   17.4189 C   0  0  0  0  0  0  0  0  0  0  0  0
   12.4767   -4.7393   22.1790 C   0  0  0  0  0  0  0  0  0  0  0  0
    7.8593   -5.3772   15.3569 N   0  0  0  0  0  0  0  0  0  0  0  0
    7.4412   -6.9038   16.9283 C   0  0  0  0  0  0  0  0  0  0  0  0
  1 21  4  0
  1 23  4  0
  2  5  1  0
  2 13  4  0
  2 16  4  0
  3  6  4  0
  3  7  4  0
  4 13  4  0
  4 19  4  0
  4 24  4  0
  6 23  4  0
  7 16  1  0
  7 21  4  0
  8 18  1  0
  9 20  4  0
  9 22  4  0
 10 17  1  0
 10 25  1  0
 11 16  4  0
 11 19  4  0
 12 15  4  0
 12 22  4  0
 14 24  4  0
 14 25  4  0
 15 17  4  0
 17 20  4  0
 18 23  1  0
 19 25  4  0
M  END
$$$$

 Created by Python create_sdf_string function

 25 28  0  0  0  0  0  0  0  0999 V2000
   13.1533   -5.2399   21.0682 C   0  0  0  0  0  0  0  0  0  0  0  0
   10.4729   -4.0295   17.6135 C   0  0  0  0  0  0  0  0  0  0  0  0
   10.4789   -4.3641   20.9564 C   0  0  0  0  0  0  0  0  0  0  0  0
    8.7421   -5.1412   16.3650 C   0  0  0  0  0  0  0  0  0  0  0  0
   11.4353   -2.9204   17.8044 C   0  0  0  0  0  0  0  0  0  0  0  0
   11.1529   -4.3028   22.1277 C   0  0  0  0  0  0  0  0  0  0  0  0
   11.1290   -4.8502   19.8052 C   0  0  0  0  0  0  0  0  0  0  0  0
   12.4329   -4.2159   24.4224 C   0  0  0  0  0  0  0  0  0  0  0  0
    3.4740   -9.0387   16.5022 C   0  0  0  0  0  0  0  0  0  0  0  0
    6.8384   -7.9290   17.5282 N   0  0  0  0  0  0  0  0  0  0  0  0
    9.4126   -5.9853   18.4899 C   0  0  0  0  0  0  0  0  0  0  0  0
    4.2064  -10.3242   18.3302 C   0  0  0  0  0  0  0  0  0  0  0  0
    9.6599   -4.1551   16.4796 N   0  0  0  0  0  0  0  0  0  0  0  0
    7.0644   -6.4612   15.7375 N   0  0  0  0  0  0  0  0  0  0  0  0
    5.3549   -9.6322   18.3190 C   0  0  0  0  0  0  0  0  0  0  0  0
   10.3704   -4.9638   18.6510 C   0  0  0  0  0  0  0  0  0  0  0  0
    5.5935   -8.6419   17.4234 C   0  0  0  0  0  0  0  0  0  0  0  0
   13.0726   -4.6648   23.3394 O   0  0  0  0  0  0  0  0  0  0  0  0
    8.5955   -6.0705   17.3996 C   0  0  0  0  0  0  0  0  0  0  0  0
    4.6223   -8.3832   16.5030 C   0  0  0  0  0  0  0  0  0  0  0  0
   12.4690   -5.2624   19.9024 C   0  0  0  0  0  0  0  0  0  0  0  0
    3.2548   -9.9919   17.4189 C   0  0  0  0  0  0  0  0  0  0  0  0
   12.4767   -4.7393   22.1790 C   0  0  0  0  0  0  0  0  0  0  0  0
    7.8593   -5.3772   15.3569 N   0  0  0  0  0  0  0  0  0  0  0  0
    7.4412   -6.9038   16.9283 C   0  0  0  0  0  0  0  0  0  0  0  0
  1 21  4  0
  1 23  4  0
  2  5  1  0
  2 13  4  0
  2 16  4  0
  3  6  4  0
  3  7  4  0
  4 13  4  0
  4 19  4  0
  4 24  4  0
  6 23  4  0
  7 16  1  0
  7 21  4  0
  8 18  1  0
  9 20  4  0
  9 22  4  0
 10 17  1  0
 10 25  1  0
 11 16  4  0
 11 19  4  0
 12 15  4  0
 12 22  4  0
 14 24  4  0
 14 25  4  0
 15 17  4  0
 17 20  4  0
 18 23  1  0
 19 25  4  0
M  END
$$$$

 Created by Python create_sdf_string function

 25 28  0  0  0  0  0  0  0  0999 V2000
   13.1533   -5.2399   21.0682 C   0  0  0  0  0  0  0  0  0  0  0  0
   10.4729   -4.0295   17.6135 C   0  0  0  0  0  0  0  0  0  0  0  0
   10.4789   -4.3641   20.9564 C   0  0  0  0  0  0  0  0  0  0  0  0
    8.7421   -5.1412   16.3650 C   0  0  0  0  0  0  0  0  0  0  0  0
   11.4353   -2.9204   17.8044 C   0  0  0  0  0  0  0  0  0  0  0  0
   11.1529   -4.3028   22.1277 C   0  0  0  0  0  0  0  0  0  0  0  0
   11.1290   -4.8502   19.8052 C   0  0  0  0  0  0  0  0  0  0  0  0
   12.4329   -4.2159   24.4224 C   0  0  0  0  0  0  0  0  0  0  0  0
    3.4740   -9.0387   16.5022 C   0  0  0  0  0  0  0  0  0  0  0  0
    6.8384   -7.9290   17.5282 N   0  0  0  0  0  0  0  0  0  0  0  0
    9.4126   -5.9853   18.4899 C   0  0  0  0  0  0  0  0  0  0  0  0
    4.2064  -10.3242   18.3302 C   0  0  0  0  0  0  0  0  0  0  0  0
    9.6599   -4.1551   16.4796 N   0  0  0  0  0  0  0  0  0  0  0  0
    7.0644   -6.4612   15.7375 N   0  0  0  0  0  0  0  0  0  0  0  0
    5.3549   -9.6322   18.3190 C   0  0  0  0  0  0  0  0  0  0  0  0
   10.3704   -4.9638   18.6510 C   0  0  0  0  0  0  0  0  0  0  0  0
    5.5935   -8.6419   17.4234 C   0  0  0  0  0  0  0  0  0  0  0  0
   13.0726   -4.6648   23.3394 O   0  0  0  0  0  0  0  0  0  0  0  0
    8.5955   -6.0705   17.3996 C   0  0  0  0  0  0  0  0  0  0  0  0
    4.6223   -8.3832   16.5030 C   0  0  0  0  0  0  0  0  0  0  0  0
   12.4690   -5.2624   19.9024 C   0  0  0  0  0  0  0  0  0  0  0  0
    3.2548   -9.9919   17.4189 C   0  0  0  0  0  0  0  0  0  0  0  0
   12.4767   -4.7393   22.1790 C   0  0  0  0  0  0  0  0  0  0  0  0
    7.8593   -5.3772   15.3569 N   0  0  0  0  0  0  0  0  0  0  0  0
    7.4412   -6.9038   16.9283 C   0  0  0  0  0  0  0  0  0  0  0  0
  1 21  4  0
  1 23  4  0
  2  5  1  0
  2 13  4  0
  2 16  4  0
  3  6  4  0
  3  7  4  0
  4 13  4  0
  4 19  4  0
  4 24  4  0
  6 23  4  0
  7 16  1  0
  7 21  4  0
  8 18  1  0
  9 20  4  0
  9 22  4  0
 10 17  1  0
 10 25  1  0
 11 16  4  0
 11 19  4  0
 12 15  4  0
 12 22  4  0
 14 24  4  0
 14 25  4  0
 15 17  4  0
 17 20  4  0
 18 23  1  0
 19 25  4  0
M  END
$$$$

 Created by Python create_sdf_string function

 25 28  0  0  0  0  0  0  0  0999 V2000
   13.1533   -5.2399   21.0682 C   0  0  0  0  0  0  0  0  0  0  0  0
   10.4729   -4.0295   17.6135 C   0  0  0  0  0  0  0  0  0  0  0  0
   10.4789   -4.3641   20.9564 C   0  0  0  0  0  0  0  0  0  0  0  0
    8.7421   -5.1412   16.3650 C   0  0  0  0  0  0  0  0  0  0  0  0
   11.4353   -2.9204   17.8044 C   0  0  0  0  0  0  0  0  0  0  0  0
   11.1529   -4.3028   22.1277 C   0  0  0  0  0  0  0  0  0  0  0  0
   11.1290   -4.8502   19.8052 C   0  0  0  0  0  0  0  0  0  0  0  0
   12.4329   -4.2159   24.4224 C   0  0  0  0  0  0  0  0  0  0  0  0
    3.4740   -9.0387   16.5022 C   0  0  0  0  0  0  0  0  0  0  0  0
    6.8384   -7.9290   17.5282 N   0  0  0  0  0  0  0  0  0  0  0  0
    9.4126   -5.9853   18.4899 C   0  0  0  0  0  0  0  0  0  0  0  0
    4.2064  -10.3242   18.3302 C   0  0  0  0  0  0  0  0  0  0  0  0
    9.6599   -4.1551   16.4796 N   0  0  0  0  0  0  0  0  0  0  0  0
    7.0644   -6.4612   15.7375 N   0  0  0  0  0  0  0  0  0  0  0  0
    5.3549   -9.6322   18.3190 C   0  0  0  0  0  0  0  0  0  0  0  0
   10.3704   -4.9638   18.6510 C   0  0  0  0  0  0  0  0  0  0  0  0
    5.5935   -8.6419   17.4234 C   0  0  0  0  0  0  0  0  0  0  0  0
   13.0726   -4.6648   23.3394 O   0  0  0  0  0  0  0  0  0  0  0  0
    8.5955   -6.0705   17.3996 C   0  0  0  0  0  0  0  0  0  0  0  0
    4.6223   -8.3832   16.5030 C   0  0  0  0  0  0  0  0  0  0  0  0
   12.4690   -5.2624   19.9024 C   0  0  0  0  0  0  0  0  0  0  0  0
    3.2548   -9.9919   17.4189 C   0  0  0  0  0  0  0  0  0  0  0  0
   12.4767   -4.7393   22.1790 C   0  0  0  0  0  0  0  0  0  0  0  0
    7.8593   -5.3772   15.3569 N   0  0  0  0  0  0  0  0  0  0  0  0
    7.4412   -6.9038   16.9283 C   0  0  0  0  0  0  0  0  0  0  0  0
  1 21  4  0
  1 23  4  0
  2  5  1  0
  2 13  4  0
  2 16  4  0
  3  6  4  0
  3  7  4  0
  4 13  4  0
  4 19  4  0
  4 24  4  0
  6 23  4  0
  7 16  1  0
  7 21  4  0
  8 18  1  0
  9 20  4  0
  9 22  4  0
 10 17  1  0
 10 25  1  0
 11 16  4  0
 11 19  4  0
 12 15  4  0
 12 22  4  0
 14 24  4  0
 14 25  4  0
 15 17  4  0
 17 20  4  0
 18 23  1  0
 19 25  4  0
M  END
$$$$

 Created by Python create_sdf_string function

 25 28  0  0  0  0  0  0  0  0999 V2000
   13.1533   -5.2399   21.0682 C   0  0  0  0  0  0  0  0  0  0  0  0
   10.4729   -4.0295   17.6135 C   0  0  0  0  0  0  0  0  0  0  0  0
   10.4789   -4.3641   20.9564 C   0  0  0  0  0  0  0  0  0  0  0  0
    8.7421   -5.1412   16.3650 C   0  0  0  0  0  0  0  0  0  0  0  0
   11.4353   -2.9204   17.8044 C   0  0  0  0  0  0  0  0  0  0  0  0
   11.1529   -4.3028   22.1277 C   0  0  0  0  0  0  0  0  0  0  0  0
   11.1290   -4.8502   19.8052 C   0  0  0  0  0  0  0  0  0  0  0  0
   12.4329   -4.2159   24.4224 C   0  0  0  0  0  0  0  0  0  0  0  0
    3.4740   -9.0387   16.5022 C   0  0  0  0  0  0  0  0  0  0  0  0
    6.8384   -7.9290   17.5282 N   0  0  0  0  0  0  0  0  0  0  0  0
    9.4126   -5.9853   18.4899 C   0  0  0  0  0  0  0  0  0  0  0  0
    4.2064  -10.3242   18.3302 C   0  0  0  0  0  0  0  0  0  0  0  0
    9.6599   -4.1551   16.4796 N   0  0  0  0  0  0  0  0  0  0  0  0
    7.0644   -6.4612   15.7375 N   0  0  0  0  0  0  0  0  0  0  0  0
    5.3549   -9.6322   18.3190 C   0  0  0  0  0  0  0  0  0  0  0  0
   10.3704   -4.9638   18.6510 C   0  0  0  0  0  0  0  0  0  0  0  0
    5.5935   -8.6419   17.4234 C   0  0  0  0  0  0  0  0  0  0  0  0
   13.0726   -4.6648   23.3394 O   0  0  0  0  0  0  0  0  0  0  0  0
    8.5955   -6.0705   17.3996 C   0  0  0  0  0  0  0  0  0  0  0  0
    4.6223   -8.3832   16.5030 C   0  0  0  0  0  0  0  0  0  0  0  0
   12.4690   -5.2624   19.9024 C   0  0  0  0  0  0  0  0  0  0  0  0
    3.2548   -9.9919   17.4189 C   0  0  0  0  0  0  0  0  0  0  0  0
   12.4767   -4.7393   22.1790 C   0  0  0  0  0  0  0  0  0  0  0  0
    7.8593   -5.3772   15.3569 N   0  0  0  0  0  0  0  0  0  0  0  0
    7.4412   -6.9038   16.9283 C   0  0  0  0  0  0  0  0  0  0  0  0
  1 21  4  0
  1 23  4  0
  2  5  1  0
  2 13  4  0
  2 16  4  0
  3  6  4  0
  3  7  4  0
  4 13  4  0
  4 19  4  0
  4 24  4  0
  6 23  4  0
  7 16  1  0
  7 21  4  0
  8 18  1  0
  9 20  4  0
  9 22  4  0
 10 17  1  0
 10 25  1  0
 11 16  4  0
 11 19  4  0
 12 15  4  0
 12 22  4  0
 14 24  4  0
 14 25  4  0
 15 17  4  0
 17 20  4  0
 18 23  1  0
 19 25  4  0
M  END
$$$$

 Created by Python create_sdf_string function

 25 28  0  0  0  0  0  0  0  0999 V2000
   13.1533   -5.2399   21.0682 C   0  0  0  0  0  0  0  0  0  0  0  0
   10.4729   -4.0295   17.6135 C   0  0  0  0  0  0  0  0  0  0  0  0
   10.4789   -4.3641   20.9564 C   0  0  0  0  0  0  0  0  0  0  0  0
    8.7421   -5.1412   16.3650 C   0  0  0  0  0  0  0  0  0  0  0  0
   11.4353   -2.9204   17.8044 C   0  0  0  0  0  0  0  0  0  0  0  0
   11.1529   -4.3028   22.1277 C   0  0  0  0  0  0  0  0  0  0  0  0
   11.1290   -4.8502   19.8052 C   0  0  0  0  0  0  0  0  0  0  0  0
   12.4329   -4.2159   24.4224 C   0  0  0  0  0  0  0  0  0  0  0  0
    3.4740   -9.0387   16.5022 C   0  0  0  0  0  0  0  0  0  0  0  0
    6.8384   -7.9290   17.5282 N   0  0  0  0  0  0  0  0  0  0  0  0
    9.4126   -5.9853   18.4899 C   0  0  0  0  0  0  0  0  0  0  0  0
    4.2064  -10.3242   18.3302 C   0  0  0  0  0  0  0  0  0  0  0  0
    9.6599   -4.1551   16.4796 N   0  0  0  0  0  0  0  0  0  0  0  0
    7.0644   -6.4612   15.7375 N   0  0  0  0  0  0  0  0  0  0  0  0
    5.3549   -9.6322   18.3190 C   0  0  0  0  0  0  0  0  0  0  0  0
   10.3704   -4.9638   18.6510 C   0  0  0  0  0  0  0  0  0  0  0  0
    5.5935   -8.6419   17.4234 C   0  0  0  0  0  0  0  0  0  0  0  0
   13.0726   -4.6648   23.3394 O   0  0  0  0  0  0  0  0  0  0  0  0
    8.5955   -6.0705   17.3996 C   0  0  0  0  0  0  0  0  0  0  0  0
    4.6223   -8.3832   16.5030 C   0  0  0  0  0  0  0  0  0  0  0  0
   12.4690   -5.2624   19.9024 C   0  0  0  0  0  0  0  0  0  0  0  0
    3.2548   -9.9919   17.4189 C   0  0  0  0  0  0  0  0  0  0  0  0
   12.4767   -4.7393   22.1790 C   0  0  0  0  0  0  0  0  0  0  0  0
    7.8593   -5.3772   15.3569 N   0  0  0  0  0  0  0  0  0  0  0  0
    7.4412   -6.9038   16.9283 C   0  0  0  0  0  0  0  0  0  0  0  0
  1 21  4  0
  1 23  4  0
  2  5  1  0
  2 13  4  0
  2 16  4  0
  3  6  4  0
  3  7  4  0
  4 13  4  0
  4 19  4  0
  4 24  4  0
  6 23  4  0
  7 16  1  0
  7 21  4  0
  8 18  1  0
  9 20  4  0
  9 22  4  0
 10 17  1  0
 10 25  1  0
 11 16  4  0
 11 19  4  0
 12 15  4  0
 12 22  4  0
 14 24  4  0
 14 25  4  0
 15 17  4  0
 17 20  4  0
 18 23  1  0
 19 25  4  0
M  END
$$$$

 Created by Python create_sdf_string function

 25 28  0  0  0  0  0  0  0  0999 V2000
   13.1533   -5.2399   21.0682 C   0  0  0  0  0  0  0  0  0  0  0  0
   10.4729   -4.0295   17.6135 C   0  0  0  0  0  0  0  0  0  0  0  0
   10.4789   -4.3641   20.9564 C   0  0  0  0  0  0  0  0  0  0  0  0
    8.7421   -5.1412   16.3650 C   0  0  0  0  0  0  0  0  0  0  0  0
   11.4353   -2.9204   17.8044 C   0  0  0  0  0  0  0  0  0  0  0  0
   11.1529   -4.3028   22.1277 C   0  0  0  0  0  0  0  0  0  0  0  0
   11.1290   -4.8502   19.8052 C   0  0  0  0  0  0  0  0  0  0  0  0
   12.4329   -4.2159   24.4224 C   0  0  0  0  0  0  0  0  0  0  0  0
    3.4740   -9.0387   16.5022 C   0  0  0  0  0  0  0  0  0  0  0  0
    6.8384   -7.9290   17.5282 N   0  0  0  0  0  0  0  0  0  0  0  0
    9.4126   -5.9853   18.4899 C   0  0  0  0  0  0  0  0  0  0  0  0
    4.2064  -10.3242   18.3302 C   0  0  0  0  0  0  0  0  0  0  0  0
    9.6599   -4.1551   16.4796 N   0  0  0  0  0  0  0  0  0  0  0  0
    7.0644   -6.4612   15.7375 N   0  0  0  0  0  0  0  0  0  0  0  0
    5.3549   -9.6322   18.3190 C   0  0  0  0  0  0  0  0  0  0  0  0
   10.3704   -4.9638   18.6510 C   0  0  0  0  0  0  0  0  0  0  0  0
    5.5935   -8.6419   17.4234 C   0  0  0  0  0  0  0  0  0  0  0  0
   13.0726   -4.6648   23.3394 O   0  0  0  0  0  0  0  0  0  0  0  0
    8.5955   -6.0705   17.3996 C   0  0  0  0  0  0  0  0  0  0  0  0
    4.6223   -8.3832   16.5030 C   0  0  0  0  0  0  0  0  0  0  0  0
   12.4690   -5.2624   19.9024 C   0  0  0  0  0  0  0  0  0  0  0  0
    3.2548   -9.9919   17.4189 C   0  0  0  0  0  0  0  0  0  0  0  0
   12.4767   -4.7393   22.1790 C   0  0  0  0  0  0  0  0  0  0  0  0
    7.8593   -5.3772   15.3569 N   0  0  0  0  0  0  0  0  0  0  0  0
    7.4412   -6.9038   16.9283 C   0  0  0  0  0  0  0  0  0  0  0  0
  1 21  4  0
  1 23  4  0
  2  5  1  0
  2 13  4  0
  2 16  4  0
  3  6  4  0
  3  7  4  0
  4 13  4  0
  4 19  4  0
  4 24  4  0
  6 23  4  0
  7 16  1  0
  7 21  4  0
  8 18  1  0
  9 20  4  0
  9 22  4  0
 10 17  1  0
 10 25  1  0
 11 16  4  0
 11 19  4  0
 12 15  4  0
 12 22  4  0
 14 24  4  0
 14 25  4  0
 15 17  4  0
 17 20  4  0
 18 23  1  0
 19 25  4  0
M  END
$$$$

 Created by Python create_sdf_string function

 25 28  0  0  0  0  0  0  0  0999 V2000
   13.1533   -5.2399   21.0682 C   0  0  0  0  0  0  0  0  0  0  0  0
   10.4729   -4.0295   17.6135 C   0  0  0  0  0  0  0  0  0  0  0  0
   10.4789   -4.3641   20.9564 C   0  0  0  0  0  0  0  0  0  0  0  0
    8.7421   -5.1412   16.3650 C   0  0  0  0  0  0  0  0  0  0  0  0
   11.4353   -2.9204   17.8044 C   0  0  0  0  0  0  0  0  0  0  0  0
   11.1529   -4.3028   22.1277 C   0  0  0  0  0  0  0  0  0  0  0  0
   11.1290   -4.8502   19.8052 C   0  0  0  0  0  0  0  0  0  0  0  0
   12.4329   -4.2159   24.4224 C   0  0  0  0  0  0  0  0  0  0  0  0
    3.4740   -9.0387   16.5022 C   0  0  0  0  0  0  0  0  0  0  0  0
    6.8384   -7.9290   17.5282 N   0  0  0  0  0  0  0  0  0  0  0  0
    9.4126   -5.9853   18.4899 C   0  0  0  0  0  0  0  0  0  0  0  0
    4.2064  -10.3242   18.3302 C   0  0  0  0  0  0  0  0  0  0  0  0
    9.6599   -4.1551   16.4796 N   0  0  0  0  0  0  0  0  0  0  0  0
    7.0644   -6.4612   15.7375 N   0  0  0  0  0  0  0  0  0  0  0  0
    5.3549   -9.6322   18.3190 C   0  0  0  0  0  0  0  0  0  0  0  0
   10.3704   -4.9638   18.6510 C   0  0  0  0  0  0  0  0  0  0  0  0
    5.5935   -8.6419   17.4234 C   0  0  0  0  0  0  0  0  0  0  0  0
   13.0726   -4.6648   23.3394 O   0  0  0  0  0  0  0  0  0  0  0  0
    8.5955   -6.0705   17.3996 C   0  0  0  0  0  0  0  0  0  0  0  0
    4.6223   -8.3832   16.5030 C   0  0  0  0  0  0  0  0  0  0  0  0
   12.4690   -5.2624   19.9024 C   0  0  0  0  0  0  0  0  0  0  0  0
    3.2548   -9.9919   17.4189 C   0  0  0  0  0  0  0  0  0  0  0  0
   12.4767   -4.7393   22.1790 C   0  0  0  0  0  0  0  0  0  0  0  0
    7.8593   -5.3772   15.3569 N   0  0  0  0  0  0  0  0  0  0  0  0
    7.4412   -6.9038   16.9283 C   0  0  0  0  0  0  0  0  0  0  0  0
  1 21  4  0
  1 23  4  0
  2  5  1  0
  2 13  4  0
  2 16  4  0
  3  6  4  0
  3  7  4  0
  4 13  4  0
  4 19  4  0
  4 24  4  0
  6 23  4  0
  7 16  1  0
  7 21  4  0
  8 18  1  0
  9 20  4  0
  9 22  4  0
 10 17  1  0
 10 25  1  0
 11 16  4  0
 11 19  4  0
 12 15  4  0
 12 22  4  0
 14 24  4  0
 14 25  4  0
 15 17  4  0
 17 20  4  0
 18 23  1  0
 19 25  4  0
M  END
$$$$

 Created by Python create_sdf_string function

 25 28  0  0  0  0  0  0  0  0999 V2000
   13.1533   -5.2399   21.0682 C   0  0  0  0  0  0  0  0  0  0  0  0
   10.4729   -4.0295   17.6135 C   0  0  0  0  0  0  0  0  0  0  0  0
   10.4789   -4.3641   20.9564 C   0  0  0  0  0  0  0  0  0  0  0  0
    8.7421   -5.1412   16.3650 C   0  0  0  0  0  0  0  0  0  0  0  0
   11.4353   -2.9204   17.8044 C   0  0  0  0  0  0  0  0  0  0  0  0
   11.1529   -4.3028   22.1277 C   0  0  0  0  0  0  0  0  0  0  0  0
   11.1290   -4.8502   19.8052 C   0  0  0  0  0  0  0  0  0  0  0  0
   12.4329   -4.2159   24.4224 C   0  0  0  0  0  0  0  0  0  0  0  0
    3.4740   -9.0387   16.5022 C   0  0  0  0  0  0  0  0  0  0  0  0
    6.8384   -7.9290   17.5282 N   0  0  0  0  0  0  0  0  0  0  0  0
    9.4126   -5.9853   18.4899 C   0  0  0  0  0  0  0  0  0  0  0  0
    4.2064  -10.3242   18.3302 C   0  0  0  0  0  0  0  0  0  0  0  0
    9.6599   -4.1551   16.4796 N   0  0  0  0  0  0  0  0  0  0  0  0
    7.0644   -6.4612   15.7375 N   0  0  0  0  0  0  0  0  0  0  0  0
    5.3549   -9.6322   18.3190 C   0  0  0  0  0  0  0  0  0  0  0  0
   10.3704   -4.9638   18.6510 C   0  0  0  0  0  0  0  0  0  0  0  0
    5.5935   -8.6419   17.4234 C   0  0  0  0  0  0  0  0  0  0  0  0
   13.0726   -4.6648   23.3394 O   0  0  0  0  0  0  0  0  0  0  0  0
    8.5955   -6.0705   17.3996 C   0  0  0  0  0  0  0  0  0  0  0  0
    4.6223   -8.3832   16.5030 C   0  0  0  0  0  0  0  0  0  0  0  0
   12.4690   -5.2624   19.9024 C   0  0  0  0  0  0  0  0  0  0  0  0
    3.2548   -9.9919   17.4189 C   0  0  0  0  0  0  0  0  0  0  0  0
   12.4767   -4.7393   22.1790 C   0  0  0  0  0  0  0  0  0  0  0  0
    7.8593   -5.3772   15.3569 N   0  0  0  0  0  0  0  0  0  0  0  0
    7.4412   -6.9038   16.9283 C   0  0  0  0  0  0  0  0  0  0  0  0
  1 21  4  0
  1 23  4  0
  2  5  1  0
  2 13  4  0
  2 16  4  0
  3  6  4  0
  3  7  4  0
  4 13  4  0
  4 19  4  0
  4 24  4  0
  6 23  4  0
  7 16  1  0
  7 21  4  0
  8 18  1  0
  9 20  4  0
  9 22  4  0
 10 17  1  0
 10 25  1  0
 11 16  4  0
 11 19  4  0
 12 15  4  0
 12 22  4  0
 14 24  4  0
 14 25  4  0
 15 17  4  0
 17 20  4  0
 18 23  1  0
 19 25  4  0
M  END
$$$$

 Created by Python create_sdf_string function

 25 28  0  0  0  0  0  0  0  0999 V2000
   13.1533   -5.2399   21.0682 C   0  0  0  0  0  0  0  0  0  0  0  0
   10.4729   -4.0295   17.6135 C   0  0  0  0  0  0  0  0  0  0  0  0
   10.4789   -4.3641   20.9564 C   0  0  0  0  0  0  0  0  0  0  0  0
    8.7421   -5.1412   16.3650 C   0  0  0  0  0  0  0  0  0  0  0  0
   11.4353   -2.9204   17.8044 C   0  0  0  0  0  0  0  0  0  0  0  0
   11.1529   -4.3028   22.1277 C   0  0  0  0  0  0  0  0  0  0  0  0
   11.1290   -4.8502   19.8052 C   0  0  0  0  0  0  0  0  0  0  0  0
   12.4329   -4.2159   24.4224 C   0  0  0  0  0  0  0  0  0  0  0  0
    3.4740   -9.0387   16.5022 C   0  0  0  0  0  0  0  0  0  0  0  0
    6.8384   -7.9290   17.5282 N   0  0  0  0  0  0  0  0  0  0  0  0
    9.4126   -5.9853   18.4899 C   0  0  0  0  0  0  0  0  0  0  0  0
    4.2064  -10.3242   18.3302 C   0  0  0  0  0  0  0  0  0  0  0  0
    9.6599   -4.1551   16.4796 N   0  0  0  0  0  0  0  0  0  0  0  0
    7.0644   -6.4612   15.7375 N   0  0  0  0  0  0  0  0  0  0  0  0
    5.3549   -9.6322   18.3190 C   0  0  0  0  0  0  0  0  0  0  0  0
   10.3704   -4.9638   18.6510 C   0  0  0  0  0  0  0  0  0  0  0  0
    5.5935   -8.6419   17.4234 C   0  0  0  0  0  0  0  0  0  0  0  0
   13.0726   -4.6648   23.3394 O   0  0  0  0  0  0  0  0  0  0  0  0
    8.5955   -6.0705   17.3996 C   0  0  0  0  0  0  0  0  0  0  0  0
    4.6223   -8.3832   16.5030 C   0  0  0  0  0  0  0  0  0  0  0  0
   12.4690   -5.2624   19.9024 C   0  0  0  0  0  0  0  0  0  0  0  0
    3.2548   -9.9919   17.4189 C   0  0  0  0  0  0  0  0  0  0  0  0
   12.4767   -4.7393   22.1790 C   0  0  0  0  0  0  0  0  0  0  0  0
    7.8593   -5.3772   15.3569 N   0  0  0  0  0  0  0  0  0  0  0  0
    7.4412   -6.9038   16.9283 C   0  0  0  0  0  0  0  0  0  0  0  0
  1 21  4  0
  1 23  4  0
  2  5  1  0
  2 13  4  0
  2 16  4  0
  3  6  4  0
  3  7  4  0
  4 13  4  0
  4 19  4  0
  4 24  4  0
  6 23  4  0
  7 16  1  0
  7 21  4  0
  8 18  1  0
  9 20  4  0
  9 22  4  0
 10 17  1  0
 10 25  1  0
 11 16  4  0
 11 19  4  0
 12 15  4  0
 12 22  4  0
 14 24  4  0
 14 25  4  0
 15 17  4  0
 17 20  4  0
 18 23  1  0
 19 25  4  0
M  END
$$$$

 Created by Python create_sdf_string function

 25 28  0  0  0  0  0  0  0  0999 V2000
   13.1533   -5.2399   21.0682 C   0  0  0  0  0  0  0  0  0  0  0  0
   10.4729   -4.0295   17.6135 C   0  0  0  0  0  0  0  0  0  0  0  0
   10.4789   -4.3641   20.9564 C   0  0  0  0  0  0  0  0  0  0  0  0
    8.7421   -5.1412   16.3650 C   0  0  0  0  0  0  0  0  0  0  0  0
   11.4353   -2.9204   17.8044 C   0  0  0  0  0  0  0  0  0  0  0  0
   11.1529   -4.3028   22.1277 C   0  0  0  0  0  0  0  0  0  0  0  0
   11.1290   -4.8502   19.8052 C   0  0  0  0  0  0  0  0  0  0  0  0
   12.4329   -4.2159   24.4224 C   0  0  0  0  0  0  0  0  0  0  0  0
    3.4740   -9.0387   16.5022 C   0  0  0  0  0  0  0  0  0  0  0  0
    6.8384   -7.9290   17.5282 N   0  0  0  0  0  0  0  0  0  0  0  0
    9.4126   -5.9853   18.4899 C   0  0  0  0  0  0  0  0  0  0  0  0
    4.2064  -10.3242   18.3302 C   0  0  0  0  0  0  0  0  0  0  0  0
    9.6599   -4.1551   16.4796 N   0  0  0  0  0  0  0  0  0  0  0  0
    7.0644   -6.4612   15.7375 N   0  0  0  0  0  0  0  0  0  0  0  0
    5.3549   -9.6322   18.3190 C   0  0  0  0  0  0  0  0  0  0  0  0
   10.3704   -4.9638   18.6510 C   0  0  0  0  0  0  0  0  0  0  0  0
    5.5935   -8.6419   17.4234 C   0  0  0  0  0  0  0  0  0  0  0  0
   13.0726   -4.6648   23.3394 O   0  0  0  0  0  0  0  0  0  0  0  0
    8.5955   -6.0705   17.3996 C   0  0  0  0  0  0  0  0  0  0  0  0
    4.6223   -8.3832   16.5030 C   0  0  0  0  0  0  0  0  0  0  0  0
   12.4690   -5.2624   19.9024 C   0  0  0  0  0  0  0  0  0  0  0  0
    3.2548   -9.9919   17.4189 C   0  0  0  0  0  0  0  0  0  0  0  0
   12.4767   -4.7393   22.1790 C   0  0  0  0  0  0  0  0  0  0  0  0
    7.8593   -5.3772   15.3569 N   0  0  0  0  0  0  0  0  0  0  0  0
    7.4412   -6.9038   16.9283 C   0  0  0  0  0  0  0  0  0  0  0  0
  1 21  4  0
  1 23  4  0
  2  5  1  0
  2 13  4  0
  2 16  4  0
  3  6  4  0
  3  7  4  0
  4 13  4  0
  4 19  4  0
  4 24  4  0
  6 23  4  0
  7 16  1  0
  7 21  4  0
  8 18  1  0
  9 20  4  0
  9 22  4  0
 10 17  1  0
 10 25  1  0
 11 16  4  0
 11 19  4  0
 12 15  4  0
 12 22  4  0
 14 24  4  0
 14 25  4  0
 15 17  4  0
 17 20  4  0
 18 23  1  0
 19 25  4  0
M  END
$$$$

 Created by Python create_sdf_string function

 25 28  0  0  0  0  0  0  0  0999 V2000
   13.1533   -5.2399   21.0682 C   0  0  0  0  0  0  0  0  0  0  0  0
   10.4729   -4.0295   17.6135 C   0  0  0  0  0  0  0  0  0  0  0  0
   10.4789   -4.3641   20.9564 C   0  0  0  0  0  0  0  0  0  0  0  0
    8.7421   -5.1412   16.3650 C   0  0  0  0  0  0  0  0  0  0  0  0
   11.4353   -2.9204   17.8044 C   0  0  0  0  0  0  0  0  0  0  0  0
   11.1529   -4.3028   22.1277 C   0  0  0  0  0  0  0  0  0  0  0  0
   11.1290   -4.8502   19.8052 C   0  0  0  0  0  0  0  0  0  0  0  0
   12.4329   -4.2159   24.4224 C   0  0  0  0  0  0  0  0  0  0  0  0
    3.4740   -9.0387   16.5022 C   0  0  0  0  0  0  0  0  0  0  0  0
    6.8384   -7.9290   17.5282 N   0  0  0  0  0  0  0  0  0  0  0  0
    9.4126   -5.9853   18.4899 C   0  0  0  0  0  0  0  0  0  0  0  0
    4.2064  -10.3242   18.3302 C   0  0  0  0  0  0  0  0  0  0  0  0
    9.6599   -4.1551   16.4796 N   0  0  0  0  0  0  0  0  0  0  0  0
    7.0644   -6.4612   15.7375 N   0  0  0  0  0  0  0  0  0  0  0  0
    5.3549   -9.6322   18.3190 C   0  0  0  0  0  0  0  0  0  0  0  0
   10.3704   -4.9638   18.6510 C   0  0  0  0  0  0  0  0  0  0  0  0
    5.5935   -8.6419   17.4234 C   0  0  0  0  0  0  0  0  0  0  0  0
   13.0726   -4.6648   23.3394 O   0  0  0  0  0  0  0  0  0  0  0  0
    8.5955   -6.0705   17.3996 C   0  0  0  0  0  0  0  0  0  0  0  0
    4.6223   -8.3832   16.5030 C   0  0  0  0  0  0  0  0  0  0  0  0
   12.4690   -5.2624   19.9024 C   0  0  0  0  0  0  0  0  0  0  0  0
    3.2548   -9.9919   17.4189 C   0  0  0  0  0  0  0  0  0  0  0  0
   12.4767   -4.7393   22.1790 C   0  0  0  0  0  0  0  0  0  0  0  0
    7.8593   -5.3772   15.3569 N   0  0  0  0  0  0  0  0  0  0  0  0
    7.4412   -6.9038   16.9283 C   0  0  0  0  0  0  0  0  0  0  0  0
  1 21  4  0
  1 23  4  0
  2  5  1  0
  2 13  4  0
  2 16  4  0
  3  6  4  0
  3  7  4  0
  4 13  4  0
  4 19  4  0
  4 24  4  0
  6 23  4  0
  7 16  1  0
  7 21  4  0
  8 18  1  0
  9 20  4  0
  9 22  4  0
 10 17  1  0
 10 25  1  0
 11 16  4  0
 11 19  4  0
 12 15  4  0
 12 22  4  0
 14 24  4  0
 14 25  4  0
 15 17  4  0
 17 20  4  0
 18 23  1  0
 19 25  4  0
M  END
$$$$

 Created by Python create_sdf_string function

 25 28  0  0  0  0  0  0  0  0999 V2000
   13.1533   -5.2399   21.0682 C   0  0  0  0  0  0  0  0  0  0  0  0
   10.4729   -4.0295   17.6135 C   0  0  0  0  0  0  0  0  0  0  0  0
   10.4789   -4.3641   20.9564 C   0  0  0  0  0  0  0  0  0  0  0  0
    8.7421   -5.1412   16.3650 C   0  0  0  0  0  0  0  0  0  0  0  0
   11.4353   -2.9204   17.8044 C   0  0  0  0  0  0  0  0  0  0  0  0
   11.1529   -4.3028   22.1277 C   0  0  0  0  0  0  0  0  0  0  0  0
   11.1290   -4.8502   19.8052 C   0  0  0  0  0  0  0  0  0  0  0  0
   12.4329   -4.2159   24.4224 C   0  0  0  0  0  0  0  0  0  0  0  0
    3.4740   -9.0387   16.5022 C   0  0  0  0  0  0  0  0  0  0  0  0
    6.8384   -7.9290   17.5282 N   0  0  0  0  0  0  0  0  0  0  0  0
    9.4126   -5.9853   18.4899 C   0  0  0  0  0  0  0  0  0  0  0  0
    4.2064  -10.3242   18.3302 C   0  0  0  0  0  0  0  0  0  0  0  0
    9.6599   -4.1551   16.4796 N   0  0  0  0  0  0  0  0  0  0  0  0
    7.0644   -6.4612   15.7375 N   0  0  0  0  0  0  0  0  0  0  0  0
    5.3549   -9.6322   18.3190 C   0  0  0  0  0  0  0  0  0  0  0  0
   10.3704   -4.9638   18.6510 C   0  0  0  0  0  0  0  0  0  0  0  0
    5.5935   -8.6419   17.4234 C   0  0  0  0  0  0  0  0  0  0  0  0
   13.0726   -4.6648   23.3394 O   0  0  0  0  0  0  0  0  0  0  0  0
    8.5955   -6.0705   17.3996 C   0  0  0  0  0  0  0  0  0  0  0  0
    4.6223   -8.3832   16.5030 C   0  0  0  0  0  0  0  0  0  0  0  0
   12.4690   -5.2624   19.9024 C   0  0  0  0  0  0  0  0  0  0  0  0
    3.2548   -9.9919   17.4189 C   0  0  0  0  0  0  0  0  0  0  0  0
   12.4767   -4.7393   22.1790 C   0  0  0  0  0  0  0  0  0  0  0  0
    7.8593   -5.3772   15.3569 N   0  0  0  0  0  0  0  0  0  0  0  0
    7.4412   -6.9038   16.9283 C   0  0  0  0  0  0  0  0  0  0  0  0
  1 21  4  0
  1 23  4  0
  2  5  1  0
  2 13  4  0
  2 16  4  0
  3  6  4  0
  3  7  4  0
  4 13  4  0
  4 19  4  0
  4 24  4  0
  6 23  4  0
  7 16  1  0
  7 21  4  0
  8 18  1  0
  9 20  4  0
  9 22  4  0
 10 17  1  0
 10 25  1  0
 11 16  4  0
 11 19  4  0
 12 15  4  0
 12 22  4  0
 14 24  4  0
 14 25  4  0
 15 17  4  0
 17 20  4  0
 18 23  1  0
 19 25  4  0
M  END
$$$$

 Created by Python create_sdf_string function

 25 28  0  0  0  0  0  0  0  0999 V2000
   13.1533   -5.2399   21.0682 C   0  0  0  0  0  0  0  0  0  0  0  0
   10.4729   -4.0295   17.6135 C   0  0  0  0  0  0  0  0  0  0  0  0
   10.4789   -4.3641   20.9564 C   0  0  0  0  0  0  0  0  0  0  0  0
    8.7421   -5.1412   16.3650 C   0  0  0  0  0  0  0  0  0  0  0  0
   11.4353   -2.9204   17.8044 C   0  0  0  0  0  0  0  0  0  0  0  0
   11.1529   -4.3028   22.1277 C   0  0  0  0  0  0  0  0  0  0  0  0
   11.1290   -4.8502   19.8052 C   0  0  0  0  0  0  0  0  0  0  0  0
   12.4329   -4.2159   24.4224 C   0  0  0  0  0  0  0  0  0  0  0  0
    3.4740   -9.0387   16.5022 C   0  0  0  0  0  0  0  0  0  0  0  0
    6.8384   -7.9290   17.5282 N   0  0  0  0  0  0  0  0  0  0  0  0
    9.4126   -5.9853   18.4899 C   0  0  0  0  0  0  0  0  0  0  0  0
    4.2064  -10.3242   18.3302 C   0  0  0  0  0  0  0  0  0  0  0  0
    9.6599   -4.1551   16.4796 N   0  0  0  0  0  0  0  0  0  0  0  0
    7.0644   -6.4612   15.7375 N   0  0  0  0  0  0  0  0  0  0  0  0
    5.3549   -9.6322   18.3190 C   0  0  0  0  0  0  0  0  0  0  0  0
   10.3704   -4.9638   18.6510 C   0  0  0  0  0  0  0  0  0  0  0  0
    5.5935   -8.6419   17.4234 C   0  0  0  0  0  0  0  0  0  0  0  0
   13.0726   -4.6648   23.3394 O   0  0  0  0  0  0  0  0  0  0  0  0
    8.5955   -6.0705   17.3996 C   0  0  0  0  0  0  0  0  0  0  0  0
    4.6223   -8.3832   16.5030 C   0  0  0  0  0  0  0  0  0  0  0  0
   12.4690   -5.2624   19.9024 C   0  0  0  0  0  0  0  0  0  0  0  0
    3.2548   -9.9919   17.4189 C   0  0  0  0  0  0  0  0  0  0  0  0
   12.4767   -4.7393   22.1790 C   0  0  0  0  0  0  0  0  0  0  0  0
    7.8593   -5.3772   15.3569 N   0  0  0  0  0  0  0  0  0  0  0  0
    7.4412   -6.9038   16.9283 C   0  0  0  0  0  0  0  0  0  0  0  0
  1 21  4  0
  1 23  4  0
  2  5  1  0
  2 13  4  0
  2 16  4  0
  3  6  4  0
  3  7  4  0
  4 13  4  0
  4 19  4  0
  4 24  4  0
  6 23  4  0
  7 16  1  0
  7 21  4  0
  8 18  1  0
  9 20  4  0
  9 22  4  0
 10 17  1  0
 10 25  1  0
 11 16  4  0
 11 19  4  0
 12 15  4  0
 12 22  4  0
 14 24  4  0
 14 25  4  0
 15 17  4  0
 17 20  4  0
 18 23  1  0
 19 25  4  0
M  END
$$$$

 Created by Python create_sdf_string function

 25 28  0  0  0  0  0  0  0  0999 V2000
   13.1533   -5.2399   21.0682 C   0  0  0  0  0  0  0  0  0  0  0  0
   10.4729   -4.0295   17.6135 C   0  0  0  0  0  0  0  0  0  0  0  0
   10.4789   -4.3641   20.9564 C   0  0  0  0  0  0  0  0  0  0  0  0
    8.7421   -5.1412   16.3650 C   0  0  0  0  0  0  0  0  0  0  0  0
   11.4353   -2.9204   17.8044 C   0  0  0  0  0  0  0  0  0  0  0  0
   11.1529   -4.3028   22.1277 C   0  0  0  0  0  0  0  0  0  0  0  0
   11.1290   -4.8502   19.8052 C   0  0  0  0  0  0  0  0  0  0  0  0
   12.4329   -4.2159   24.4224 C   0  0  0  0  0  0  0  0  0  0  0  0
    3.4740   -9.0387   16.5022 C   0  0  0  0  0  0  0  0  0  0  0  0
    6.8384   -7.9290   17.5282 N   0  0  0  0  0  0  0  0  0  0  0  0
    9.4126   -5.9853   18.4899 C   0  0  0  0  0  0  0  0  0  0  0  0
    4.2064  -10.3242   18.3302 C   0  0  0  0  0  0  0  0  0  0  0  0
    9.6599   -4.1551   16.4796 N   0  0  0  0  0  0  0  0  0  0  0  0
    7.0644   -6.4612   15.7375 N   0  0  0  0  0  0  0  0  0  0  0  0
    5.3549   -9.6322   18.3190 C   0  0  0  0  0  0  0  0  0  0  0  0
   10.3704   -4.9638   18.6510 C   0  0  0  0  0  0  0  0  0  0  0  0
    5.5935   -8.6419   17.4234 C   0  0  0  0  0  0  0  0  0  0  0  0
   13.0726   -4.6648   23.3394 O   0  0  0  0  0  0  0  0  0  0  0  0
    8.5955   -6.0705   17.3996 C   0  0  0  0  0  0  0  0  0  0  0  0
    4.6223   -8.3832   16.5030 C   0  0  0  0  0  0  0  0  0  0  0  0
   12.4690   -5.2624   19.9024 C   0  0  0  0  0  0  0  0  0  0  0  0
    3.2548   -9.9919   17.4189 C   0  0  0  0  0  0  0  0  0  0  0  0
   12.4767   -4.7393   22.1790 C   0  0  0  0  0  0  0  0  0  0  0  0
    7.8593   -5.3772   15.3569 N   0  0  0  0  0  0  0  0  0  0  0  0
    7.4412   -6.9038   16.9283 C   0  0  0  0  0  0  0  0  0  0  0  0
  1 21  4  0
  1 23  4  0
  2  5  1  0
  2 13  4  0
  2 16  4  0
  3  6  4  0
  3  7  4  0
  4 13  4  0
  4 19  4  0
  4 24  4  0
  6 23  4  0
  7 16  1  0
  7 21  4  0
  8 18  1  0
  9 20  4  0
  9 22  4  0
 10 17  1  0
 10 25  1  0
 11 16  4  0
 11 19  4  0
 12 15  4  0
 12 22  4  0
 14 24  4  0
 14 25  4  0
 15 17  4  0
 17 20  4  0
 18 23  1  0
 19 25  4  0
M  END
$$$$

 Created by Python create_sdf_string function

 25 28  0  0  0  0  0  0  0  0999 V2000
   13.1533   -5.2399   21.0682 C   0  0  0  0  0  0  0  0  0  0  0  0
   10.4729   -4.0295   17.6135 C   0  0  0  0  0  0  0  0  0  0  0  0
   10.4789   -4.3641   20.9564 C   0  0  0  0  0  0  0  0  0  0  0  0
    8.7421   -5.1412   16.3650 C   0  0  0  0  0  0  0  0  0  0  0  0
   11.4353   -2.9204   17.8044 C   0  0  0  0  0  0  0  0  0  0  0  0
   11.1529   -4.3028   22.1277 C   0  0  0  0  0  0  0  0  0  0  0  0
   11.1290   -4.8502   19.8052 C   0  0  0  0  0  0  0  0  0  0  0  0
   12.4329   -4.2159   24.4224 C   0  0  0  0  0  0  0  0  0  0  0  0
    3.4740   -9.0387   16.5022 C   0  0  0  0  0  0  0  0  0  0  0  0
    6.8384   -7.9290   17.5282 N   0  0  0  0  0  0  0  0  0  0  0  0
    9.4126   -5.9853   18.4899 C   0  0  0  0  0  0  0  0  0  0  0  0
    4.2064  -10.3242   18.3302 C   0  0  0  0  0  0  0  0  0  0  0  0
    9.6599   -4.1551   16.4796 N   0  0  0  0  0  0  0  0  0  0  0  0
    7.0644   -6.4612   15.7375 N   0  0  0  0  0  0  0  0  0  0  0  0
    5.3549   -9.6322   18.3190 C   0  0  0  0  0  0  0  0  0  0  0  0
   10.3704   -4.9638   18.6510 C   0  0  0  0  0  0  0  0  0  0  0  0
    5.5935   -8.6419   17.4234 C   0  0  0  0  0  0  0  0  0  0  0  0
   13.0726   -4.6648   23.3394 O   0  0  0  0  0  0  0  0  0  0  0  0
    8.5955   -6.0705   17.3996 C   0  0  0  0  0  0  0  0  0  0  0  0
    4.6223   -8.3832   16.5030 C   0  0  0  0  0  0  0  0  0  0  0  0
   12.4690   -5.2624   19.9024 C   0  0  0  0  0  0  0  0  0  0  0  0
    3.2548   -9.9919   17.4189 C   0  0  0  0  0  0  0  0  0  0  0  0
   12.4767   -4.7393   22.1790 C   0  0  0  0  0  0  0  0  0  0  0  0
    7.8593   -5.3772   15.3569 N   0  0  0  0  0  0  0  0  0  0  0  0
    7.4412   -6.9038   16.9283 C   0  0  0  0  0  0  0  0  0  0  0  0
  1 21  4  0
  1 23  4  0
  2  5  1  0
  2 13  4  0
  2 16  4  0
  3  6  4  0
  3  7  4  0
  4 13  4  0
  4 19  4  0
  4 24  4  0
  6 23  4  0
  7 16  1  0
  7 21  4  0
  8 18  1  0
  9 20  4  0
  9 22  4  0
 10 17  1  0
 10 25  1  0
 11 16  4  0
 11 19  4  0
 12 15  4  0
 12 22  4  0
 14 24  4  0
 14 25  4  0
 15 17  4  0
 17 20  4  0
 18 23  1  0
 19 25  4  0
M  END
$$$$

 Created by Python create_sdf_string function

 25 28  0  0  0  0  0  0  0  0999 V2000
   13.1533   -5.2399   21.0682 C   0  0  0  0  0  0  0  0  0  0  0  0
   10.4729   -4.0295   17.6135 C   0  0  0  0  0  0  0  0  0  0  0  0
   10.4789   -4.3641   20.9564 C   0  0  0  0  0  0  0  0  0  0  0  0
    8.7421   -5.1412   16.3650 C   0  0  0  0  0  0  0  0  0  0  0  0
   11.4353   -2.9204   17.8044 C   0  0  0  0  0  0  0  0  0  0  0  0
   11.1529   -4.3028   22.1277 C   0  0  0  0  0  0  0  0  0  0  0  0
   11.1290   -4.8502   19.8052 C   0  0  0  0  0  0  0  0  0  0  0  0
   12.4329   -4.2159   24.4224 C   0  0  0  0  0  0  0  0  0  0  0  0
    3.4740   -9.0387   16.5022 C   0  0  0  0  0  0  0  0  0  0  0  0
    6.8384   -7.9290   17.5282 N   0  0  0  0  0  0  0  0  0  0  0  0
    9.4126   -5.9853   18.4899 C   0  0  0  0  0  0  0  0  0  0  0  0
    4.2064  -10.3242   18.3302 C   0  0  0  0  0  0  0  0  0  0  0  0
    9.6599   -4.1551   16.4796 N   0  0  0  0  0  0  0  0  0  0  0  0
    7.0644   -6.4612   15.7375 N   0  0  0  0  0  0  0  0  0  0  0  0
    5.3549   -9.6322   18.3190 C   0  0  0  0  0  0  0  0  0  0  0  0
   10.3704   -4.9638   18.6510 C   0  0  0  0  0  0  0  0  0  0  0  0
    5.5935   -8.6419   17.4234 C   0  0  0  0  0  0  0  0  0  0  0  0
   13.0726   -4.6648   23.3394 O   0  0  0  0  0  0  0  0  0  0  0  0
    8.5955   -6.0705   17.3996 C   0  0  0  0  0  0  0  0  0  0  0  0
    4.6223   -8.3832   16.5030 C   0  0  0  0  0  0  0  0  0  0  0  0
   12.4690   -5.2624   19.9024 C   0  0  0  0  0  0  0  0  0  0  0  0
    3.2548   -9.9919   17.4189 C   0  0  0  0  0  0  0  0  0  0  0  0
   12.4767   -4.7393   22.1790 C   0  0  0  0  0  0  0  0  0  0  0  0
    7.8593   -5.3772   15.3569 N   0  0  0  0  0  0  0  0  0  0  0  0
    7.4412   -6.9038   16.9283 C   0  0  0  0  0  0  0  0  0  0  0  0
  1 21  4  0
  1 23  4  0
  2  5  1  0
  2 13  4  0
  2 16  4  0
  3  6  4  0
  3  7  4  0
  4 13  4  0
  4 19  4  0
  4 24  4  0
  6 23  4  0
  7 16  1  0
  7 21  4  0
  8 18  1  0
  9 20  4  0
  9 22  4  0
 10 17  1  0
 10 25  1  0
 11 16  4  0
 11 19  4  0
 12 15  4  0
 12 22  4  0
 14 24  4  0
 14 25  4  0
 15 17  4  0
 17 20  4  0
 18 23  1  0
 19 25  4  0
M  END
$$$$

 Created by Python create_sdf_string function

 25 28  0  0  0  0  0  0  0  0999 V2000
   13.1533   -5.2399   21.0682 C   0  0  0  0  0  0  0  0  0  0  0  0
   10.4729   -4.0295   17.6135 C   0  0  0  0  0  0  0  0  0  0  0  0
   10.4789   -4.3641   20.9564 C   0  0  0  0  0  0  0  0  0  0  0  0
    8.7421   -5.1412   16.3650 C   0  0  0  0  0  0  0  0  0  0  0  0
   11.4353   -2.9204   17.8044 C   0  0  0  0  0  0  0  0  0  0  0  0
   11.1529   -4.3028   22.1277 C   0  0  0  0  0  0  0  0  0  0  0  0
   11.1290   -4.8502   19.8052 C   0  0  0  0  0  0  0  0  0  0  0  0
   12.4329   -4.2159   24.4224 C   0  0  0  0  0  0  0  0  0  0  0  0
    3.4740   -9.0387   16.5022 C   0  0  0  0  0  0  0  0  0  0  0  0
    6.8384   -7.9290   17.5282 N   0  0  0  0  0  0  0  0  0  0  0  0
    9.4126   -5.9853   18.4899 C   0  0  0  0  0  0  0  0  0  0  0  0
    4.2064  -10.3242   18.3302 C   0  0  0  0  0  0  0  0  0  0  0  0
    9.6599   -4.1551   16.4796 N   0  0  0  0  0  0  0  0  0  0  0  0
    7.0644   -6.4612   15.7375 N   0  0  0  0  0  0  0  0  0  0  0  0
    5.3549   -9.6322   18.3190 C   0  0  0  0  0  0  0  0  0  0  0  0
   10.3704   -4.9638   18.6510 C   0  0  0  0  0  0  0  0  0  0  0  0
    5.5935   -8.6419   17.4234 C   0  0  0  0  0  0  0  0  0  0  0  0
   13.0726   -4.6648   23.3394 O   0  0  0  0  0  0  0  0  0  0  0  0
    8.5955   -6.0705   17.3996 C   0  0  0  0  0  0  0  0  0  0  0  0
    4.6223   -8.3832   16.5030 C   0  0  0  0  0  0  0  0  0  0  0  0
   12.4690   -5.2624   19.9024 C   0  0  0  0  0  0  0  0  0  0  0  0
    3.2548   -9.9919   17.4189 C   0  0  0  0  0  0  0  0  0  0  0  0
   12.4767   -4.7393   22.1790 C   0  0  0  0  0  0  0  0  0  0  0  0
    7.8593   -5.3772   15.3569 N   0  0  0  0  0  0  0  0  0  0  0  0
    7.4412   -6.9038   16.9283 C   0  0  0  0  0  0  0  0  0  0  0  0
  1 21  4  0
  1 23  4  0
  2  5  1  0
  2 13  4  0
  2 16  4  0
  3  6  4  0
  3  7  4  0
  4 13  4  0
  4 19  4  0
  4 24  4  0
  6 23  4  0
  7 16  1  0
  7 21  4  0
  8 18  1  0
  9 20  4  0
  9 22  4  0
 10 17  1  0
 10 25  1  0
 11 16  4  0
 11 19  4  0
 12 15  4  0
 12 22  4  0
 14 24  4  0
 14 25  4  0
 15 17  4  0
 17 20  4  0
 18 23  1  0
 19 25  4  0
M  END
$$$$

 Created by Python create_sdf_string function

 25 28  0  0  0  0  0  0  0  0999 V2000
   13.1533   -5.2399   21.0682 C   0  0  0  0  0  0  0  0  0  0  0  0
   10.4729   -4.0295   17.6135 C   0  0  0  0  0  0  0  0  0  0  0  0
   10.4789   -4.3641   20.9564 C   0  0  0  0  0  0  0  0  0  0  0  0
    8.7421   -5.1412   16.3650 C   0  0  0  0  0  0  0  0  0  0  0  0
   11.4353   -2.9204   17.8044 C   0  0  0  0  0  0  0  0  0  0  0  0
   11.1529   -4.3028   22.1277 C   0  0  0  0  0  0  0  0  0  0  0  0
   11.1290   -4.8502   19.8052 C   0  0  0  0  0  0  0  0  0  0  0  0
   12.4329   -4.2159   24.4224 C   0  0  0  0  0  0  0  0  0  0  0  0
    3.4740   -9.0387   16.5022 C   0  0  0  0  0  0  0  0  0  0  0  0
    6.8384   -7.9290   17.5282 N   0  0  0  0  0  0  0  0  0  0  0  0
    9.4126   -5.9853   18.4899 C   0  0  0  0  0  0  0  0  0  0  0  0
    4.2064  -10.3242   18.3302 C   0  0  0  0  0  0  0  0  0  0  0  0
    9.6599   -4.1551   16.4796 N   0  0  0  0  0  0  0  0  0  0  0  0
    7.0644   -6.4612   15.7375 N   0  0  0  0  0  0  0  0  0  0  0  0
    5.3549   -9.6322   18.3190 C   0  0  0  0  0  0  0  0  0  0  0  0
   10.3704   -4.9638   18.6510 C   0  0  0  0  0  0  0  0  0  0  0  0
    5.5935   -8.6419   17.4234 C   0  0  0  0  0  0  0  0  0  0  0  0
   13.0726   -4.6648   23.3394 O   0  0  0  0  0  0  0  0  0  0  0  0
    8.5955   -6.0705   17.3996 C   0  0  0  0  0  0  0  0  0  0  0  0
    4.6223   -8.3832   16.5030 C   0  0  0  0  0  0  0  0  0  0  0  0
   12.4690   -5.2624   19.9024 C   0  0  0  0  0  0  0  0  0  0  0  0
    3.2548   -9.9919   17.4189 C   0  0  0  0  0  0  0  0  0  0  0  0
   12.4767   -4.7393   22.1790 C   0  0  0  0  0  0  0  0  0  0  0  0
    7.8593   -5.3772   15.3569 N   0  0  0  0  0  0  0  0  0  0  0  0
    7.4412   -6.9038   16.9283 C   0  0  0  0  0  0  0  0  0  0  0  0
  1 21  4  0
  1 23  4  0
  2  5  1  0
  2 13  4  0
  2 16  4  0
  3  6  4  0
  3  7  4  0
  4 13  4  0
  4 19  4  0
  4 24  4  0
  6 23  4  0
  7 16  1  0
  7 21  4  0
  8 18  1  0
  9 20  4  0
  9 22  4  0
 10 17  1  0
 10 25  1  0
 11 16  4  0
 11 19  4  0
 12 15  4  0
 12 22  4  0
 14 24  4  0
 14 25  4  0
 15 17  4  0
 17 20  4  0
 18 23  1  0
 19 25  4  0
M  END
$$$$

 Created by Python create_sdf_string function

 25 28  0  0  0  0  0  0  0  0999 V2000
   13.1533   -5.2399   21.0682 C   0  0  0  0  0  0  0  0  0  0  0  0
   10.4729   -4.0295   17.6135 C   0  0  0  0  0  0  0  0  0  0  0  0
   10.4789   -4.3641   20.9564 C   0  0  0  0  0  0  0  0  0  0  0  0
    8.7421   -5.1412   16.3650 C   0  0  0  0  0  0  0  0  0  0  0  0
   11.4353   -2.9204   17.8044 C   0  0  0  0  0  0  0  0  0  0  0  0
   11.1529   -4.3028   22.1277 C   0  0  0  0  0  0  0  0  0  0  0  0
   11.1290   -4.8502   19.8052 C   0  0  0  0  0  0  0  0  0  0  0  0
   12.4329   -4.2159   24.4224 C   0  0  0  0  0  0  0  0  0  0  0  0
    3.4740   -9.0387   16.5022 C   0  0  0  0  0  0  0  0  0  0  0  0
    6.8384   -7.9290   17.5282 N   0  0  0  0  0  0  0  0  0  0  0  0
    9.4126   -5.9853   18.4899 C   0  0  0  0  0  0  0  0  0  0  0  0
    4.2064  -10.3242   18.3302 C   0  0  0  0  0  0  0  0  0  0  0  0
    9.6599   -4.1551   16.4796 N   0  0  0  0  0  0  0  0  0  0  0  0
    7.0644   -6.4612   15.7375 N   0  0  0  0  0  0  0  0  0  0  0  0
    5.3549   -9.6322   18.3190 C   0  0  0  0  0  0  0  0  0  0  0  0
   10.3704   -4.9638   18.6510 C   0  0  0  0  0  0  0  0  0  0  0  0
    5.5935   -8.6419   17.4234 C   0  0  0  0  0  0  0  0  0  0  0  0
   13.0726   -4.6648   23.3394 O   0  0  0  0  0  0  0  0  0  0  0  0
    8.5955   -6.0705   17.3996 C   0  0  0  0  0  0  0  0  0  0  0  0
    4.6223   -8.3832   16.5030 C   0  0  0  0  0  0  0  0  0  0  0  0
   12.4690   -5.2624   19.9024 C   0  0  0  0  0  0  0  0  0  0  0  0
    3.2548   -9.9919   17.4189 C   0  0  0  0  0  0  0  0  0  0  0  0
   12.4767   -4.7393   22.1790 C   0  0  0  0  0  0  0  0  0  0  0  0
    7.8593   -5.3772   15.3569 N   0  0  0  0  0  0  0  0  0  0  0  0
    7.4412   -6.9038   16.9283 C   0  0  0  0  0  0  0  0  0  0  0  0
  1 21  4  0
  1 23  4  0
  2  5  1  0
  2 13  4  0
  2 16  4  0
  3  6  4  0
  3  7  4  0
  4 13  4  0
  4 19  4  0
  4 24  4  0
  6 23  4  0
  7 16  1  0
  7 21  4  0
  8 18  1  0
  9 20  4  0
  9 22  4  0
 10 17  1  0
 10 25  1  0
 11 16  4  0
 11 19  4  0
 12 15  4  0
 12 22  4  0
 14 24  4  0
 14 25  4  0
 15 17  4  0
 17 20  4  0
 18 23  1  0
 19 25  4  0
M  END
$$$$

 Created by Python create_sdf_string function

 25 28  0  0  0  0  0  0  0  0999 V2000
   13.1533   -5.2399   21.0682 C   0  0  0  0  0  0  0  0  0  0  0  0
   10.4729   -4.0295   17.6135 C   0  0  0  0  0  0  0  0  0  0  0  0
   10.4789   -4.3641   20.9564 C   0  0  0  0  0  0  0  0  0  0  0  0
    8.7421   -5.1412   16.3650 C   0  0  0  0  0  0  0  0  0  0  0  0
   11.4353   -2.9204   17.8044 C   0  0  0  0  0  0  0  0  0  0  0  0
   11.1529   -4.3028   22.1277 C   0  0  0  0  0  0  0  0  0  0  0  0
   11.1290   -4.8502   19.8052 C   0  0  0  0  0  0  0  0  0  0  0  0
   12.4329   -4.2159   24.4224 C   0  0  0  0  0  0  0  0  0  0  0  0
    3.4740   -9.0387   16.5022 C   0  0  0  0  0  0  0  0  0  0  0  0
    6.8384   -7.9290   17.5282 N   0  0  0  0  0  0  0  0  0  0  0  0
    9.4126   -5.9853   18.4899 C   0  0  0  0  0  0  0  0  0  0  0  0
    4.2064  -10.3242   18.3302 C   0  0  0  0  0  0  0  0  0  0  0  0
    9.6599   -4.1551   16.4796 N   0  0  0  0  0  0  0  0  0  0  0  0
    7.0644   -6.4612   15.7375 N   0  0  0  0  0  0  0  0  0  0  0  0
    5.3549   -9.6322   18.3190 C   0  0  0  0  0  0  0  0  0  0  0  0
   10.3704   -4.9638   18.6510 C   0  0  0  0  0  0  0  0  0  0  0  0
    5.5935   -8.6419   17.4234 C   0  0  0  0  0  0  0  0  0  0  0  0
   13.0726   -4.6648   23.3394 O   0  0  0  0  0  0  0  0  0  0  0  0
    8.5955   -6.0705   17.3996 C   0  0  0  0  0  0  0  0  0  0  0  0
    4.6223   -8.3832   16.5030 C   0  0  0  0  0  0  0  0  0  0  0  0
   12.4690   -5.2624   19.9024 C   0  0  0  0  0  0  0  0  0  0  0  0
    3.2548   -9.9919   17.4189 C   0  0  0  0  0  0  0  0  0  0  0  0
   12.4767   -4.7393   22.1790 C   0  0  0  0  0  0  0  0  0  0  0  0
    7.8593   -5.3772   15.3569 N   0  0  0  0  0  0  0  0  0  0  0  0
    7.4412   -6.9038   16.9283 C   0  0  0  0  0  0  0  0  0  0  0  0
  1 21  4  0
  1 23  4  0
  2  5  1  0
  2 13  4  0
  2 16  4  0
  3  6  4  0
  3  7  4  0
  4 13  4  0
  4 19  4  0
  4 24  4  0
  6 23  4  0
  7 16  1  0
  7 21  4  0
  8 18  1  0
  9 20  4  0
  9 22  4  0
 10 17  1  0
 10 25  1  0
 11 16  4  0
 11 19  4  0
 12 15  4  0
 12 22  4  0
 14 24  4  0
 14 25  4  0
 15 17  4  0
 17 20  4  0
 18 23  1  0
 19 25  4  0
M  END
$$$$

 Created by Python create_sdf_string function

 25 28  0  0  0  0  0  0  0  0999 V2000
   13.1533   -5.2399   21.0682 C   0  0  0  0  0  0  0  0  0  0  0  0
   10.4729   -4.0295   17.6135 C   0  0  0  0  0  0  0  0  0  0  0  0
   10.4789   -4.3641   20.9564 C   0  0  0  0  0  0  0  0  0  0  0  0
    8.7421   -5.1412   16.3650 C   0  0  0  0  0  0  0  0  0  0  0  0
   11.4353   -2.9204   17.8044 C   0  0  0  0  0  0  0  0  0  0  0  0
   11.1529   -4.3028   22.1277 C   0  0  0  0  0  0  0  0  0  0  0  0
   11.1290   -4.8502   19.8052 C   0  0  0  0  0  0  0  0  0  0  0  0
   12.4329   -4.2159   24.4224 C   0  0  0  0  0  0  0  0  0  0  0  0
    3.4740   -9.0387   16.5022 C   0  0  0  0  0  0  0  0  0  0  0  0
    6.8384   -7.9290   17.5282 N   0  0  0  0  0  0  0  0  0  0  0  0
    9.4126   -5.9853   18.4899 C   0  0  0  0  0  0  0  0  0  0  0  0
    4.2064  -10.3242   18.3302 C   0  0  0  0  0  0  0  0  0  0  0  0
    9.6599   -4.1551   16.4796 N   0  0  0  0  0  0  0  0  0  0  0  0
    7.0644   -6.4612   15.7375 N   0  0  0  0  0  0  0  0  0  0  0  0
    5.3549   -9.6322   18.3190 C   0  0  0  0  0  0  0  0  0  0  0  0
   10.3704   -4.9638   18.6510 C   0  0  0  0  0  0  0  0  0  0  0  0
    5.5935   -8.6419   17.4234 C   0  0  0  0  0  0  0  0  0  0  0  0
   13.0726   -4.6648   23.3394 O   0  0  0  0  0  0  0  0  0  0  0  0
    8.5955   -6.0705   17.3996 C   0  0  0  0  0  0  0  0  0  0  0  0
    4.6223   -8.3832   16.5030 C   0  0  0  0  0  0  0  0  0  0  0  0
   12.4690   -5.2624   19.9024 C   0  0  0  0  0  0  0  0  0  0  0  0
    3.2548   -9.9919   17.4189 C   0  0  0  0  0  0  0  0  0  0  0  0
   12.4767   -4.7393   22.1790 C   0  0  0  0  0  0  0  0  0  0  0  0
    7.8593   -5.3772   15.3569 N   0  0  0  0  0  0  0  0  0  0  0  0
    7.4412   -6.9038   16.9283 C   0  0  0  0  0  0  0  0  0  0  0  0
  1 21  4  0
  1 23  4  0
  2  5  1  0
  2 13  4  0
  2 16  4  0
  3  6  4  0
  3  7  4  0
  4 13  4  0
  4 19  4  0
  4 24  4  0
  6 23  4  0
  7 16  1  0
  7 21  4  0
  8 18  1  0
  9 20  4  0
  9 22  4  0
 10 17  1  0
 10 25  1  0
 11 16  4  0
 11 19  4  0
 12 15  4  0
 12 22  4  0
 14 24  4  0
 14 25  4  0
 15 17  4  0
 17 20  4  0
 18 23  1  0
 19 25  4  0
M  END
$$$$

 Created by Python create_sdf_string function

 25 28  0  0  0  0  0  0  0  0999 V2000
   13.1533   -5.2399   21.0682 C   0  0  0  0  0  0  0  0  0  0  0  0
   10.4729   -4.0295   17.6135 C   0  0  0  0  0  0  0  0  0  0  0  0
   10.4789   -4.3641   20.9564 C   0  0  0  0  0  0  0  0  0  0  0  0
    8.7421   -5.1412   16.3650 C   0  0  0  0  0  0  0  0  0  0  0  0
   11.4353   -2.9204   17.8044 C   0  0  0  0  0  0  0  0  0  0  0  0
   11.1529   -4.3028   22.1277 C   0  0  0  0  0  0  0  0  0  0  0  0
   11.1290   -4.8502   19.8052 C   0  0  0  0  0  0  0  0  0  0  0  0
   12.4329   -4.2159   24.4224 C   0  0  0  0  0  0  0  0  0  0  0  0
    3.4740   -9.0387   16.5022 C   0  0  0  0  0  0  0  0  0  0  0  0
    6.8384   -7.9290   17.5282 N   0  0  0  0  0  0  0  0  0  0  0  0
    9.4126   -5.9853   18.4899 C   0  0  0  0  0  0  0  0  0  0  0  0
    4.2064  -10.3242   18.3302 C   0  0  0  0  0  0  0  0  0  0  0  0
    9.6599   -4.1551   16.4796 N   0  0  0  0  0  0  0  0  0  0  0  0
    7.0644   -6.4612   15.7375 N   0  0  0  0  0  0  0  0  0  0  0  0
    5.3549   -9.6322   18.3190 C   0  0  0  0  0  0  0  0  0  0  0  0
   10.3704   -4.9638   18.6510 C   0  0  0  0  0  0  0  0  0  0  0  0
    5.5935   -8.6419   17.4234 C   0  0  0  0  0  0  0  0  0  0  0  0
   13.0726   -4.6648   23.3394 O   0  0  0  0  0  0  0  0  0  0  0  0
    8.5955   -6.0705   17.3996 C   0  0  0  0  0  0  0  0  0  0  0  0
    4.6223   -8.3832   16.5030 C   0  0  0  0  0  0  0  0  0  0  0  0
   12.4690   -5.2624   19.9024 C   0  0  0  0  0  0  0  0  0  0  0  0
    3.2548   -9.9919   17.4189 C   0  0  0  0  0  0  0  0  0  0  0  0
   12.4767   -4.7393   22.1790 C   0  0  0  0  0  0  0  0  0  0  0  0
    7.8593   -5.3772   15.3569 N   0  0  0  0  0  0  0  0  0  0  0  0
    7.4412   -6.9038   16.9283 C   0  0  0  0  0  0  0  0  0  0  0  0
  1 21  4  0
  1 23  4  0
  2  5  1  0
  2 13  4  0
  2 16  4  0
  3  6  4  0
  3  7  4  0
  4 13  4  0
  4 19  4  0
  4 24  4  0
  6 23  4  0
  7 16  1  0
  7 21  4  0
  8 18  1  0
  9 20  4  0
  9 22  4  0
 10 17  1  0
 10 25  1  0
 11 16  4  0
 11 19  4  0
 12 15  4  0
 12 22  4  0
 14 24  4  0
 14 25  4  0
 15 17  4  0
 17 20  4  0
 18 23  1  0
 19 25  4  0
M  END
$$$$

 Created by Python create_sdf_string function

 25 28  0  0  0  0  0  0  0  0999 V2000
   13.1533   -5.2399   21.0682 C   0  0  0  0  0  0  0  0  0  0  0  0
   10.4729   -4.0295   17.6135 C   0  0  0  0  0  0  0  0  0  0  0  0
   10.4789   -4.3641   20.9564 C   0  0  0  0  0  0  0  0  0  0  0  0
    8.7421   -5.1412   16.3650 C   0  0  0  0  0  0  0  0  0  0  0  0
   11.4353   -2.9204   17.8044 C   0  0  0  0  0  0  0  0  0  0  0  0
   11.1529   -4.3028   22.1277 C   0  0  0  0  0  0  0  0  0  0  0  0
   11.1290   -4.8502   19.8052 C   0  0  0  0  0  0  0  0  0  0  0  0
   12.4329   -4.2159   24.4224 C   0  0  0  0  0  0  0  0  0  0  0  0
    3.4740   -9.0387   16.5022 C   0  0  0  0  0  0  0  0  0  0  0  0
    6.8384   -7.9290   17.5282 N   0  0  0  0  0  0  0  0  0  0  0  0
    9.4126   -5.9853   18.4899 C   0  0  0  0  0  0  0  0  0  0  0  0
    4.2064  -10.3242   18.3302 C   0  0  0  0  0  0  0  0  0  0  0  0
    9.6599   -4.1551   16.4796 N   0  0  0  0  0  0  0  0  0  0  0  0
    7.0644   -6.4612   15.7375 N   0  0  0  0  0  0  0  0  0  0  0  0
    5.3549   -9.6322   18.3190 C   0  0  0  0  0  0  0  0  0  0  0  0
   10.3704   -4.9638   18.6510 C   0  0  0  0  0  0  0  0  0  0  0  0
    5.5935   -8.6419   17.4234 C   0  0  0  0  0  0  0  0  0  0  0  0
   13.0726   -4.6648   23.3394 O   0  0  0  0  0  0  0  0  0  0  0  0
    8.5955   -6.0705   17.3996 C   0  0  0  0  0  0  0  0  0  0  0  0
    4.6223   -8.3832   16.5030 C   0  0  0  0  0  0  0  0  0  0  0  0
   12.4690   -5.2624   19.9024 C   0  0  0  0  0  0  0  0  0  0  0  0
    3.2548   -9.9919   17.4189 C   0  0  0  0  0  0  0  0  0  0  0  0
   12.4767   -4.7393   22.1790 C   0  0  0  0  0  0  0  0  0  0  0  0
    7.8593   -5.3772   15.3569 N   0  0  0  0  0  0  0  0  0  0  0  0
    7.4412   -6.9038   16.9283 C   0  0  0  0  0  0  0  0  0  0  0  0
  1 21  4  0
  1 23  4  0
  2  5  1  0
  2 13  4  0
  2 16  4  0
  3  6  4  0
  3  7  4  0
  4 13  4  0
  4 19  4  0
  4 24  4  0
  6 23  4  0
  7 16  1  0
  7 21  4  0
  8 18  1  0
  9 20  4  0
  9 22  4  0
 10 17  1  0
 10 25  1  0
 11 16  4  0
 11 19  4  0
 12 15  4  0
 12 22  4  0
 14 24  4  0
 14 25  4  0
 15 17  4  0
 17 20  4  0
 18 23  1  0
 19 25  4  0
M  END
$$$$

 Created by Python create_sdf_string function

 25 28  0  0  0  0  0  0  0  0999 V2000
   13.1533   -5.2399   21.0682 C   0  0  0  0  0  0  0  0  0  0  0  0
   10.4729   -4.0295   17.6135 C   0  0  0  0  0  0  0  0  0  0  0  0
   10.4789   -4.3641   20.9564 C   0  0  0  0  0  0  0  0  0  0  0  0
    8.7421   -5.1412   16.3650 C   0  0  0  0  0  0  0  0  0  0  0  0
   11.4353   -2.9204   17.8044 C   0  0  0  0  0  0  0  0  0  0  0  0
   11.1529   -4.3028   22.1277 C   0  0  0  0  0  0  0  0  0  0  0  0
   11.1290   -4.8502   19.8052 C   0  0  0  0  0  0  0  0  0  0  0  0
   12.4329   -4.2159   24.4224 C   0  0  0  0  0  0  0  0  0  0  0  0
    3.4740   -9.0387   16.5022 C   0  0  0  0  0  0  0  0  0  0  0  0
    6.8384   -7.9290   17.5282 N   0  0  0  0  0  0  0  0  0  0  0  0
    9.4126   -5.9853   18.4899 C   0  0  0  0  0  0  0  0  0  0  0  0
    4.2064  -10.3242   18.3302 C   0  0  0  0  0  0  0  0  0  0  0  0
    9.6599   -4.1551   16.4796 N   0  0  0  0  0  0  0  0  0  0  0  0
    7.0644   -6.4612   15.7375 N   0  0  0  0  0  0  0  0  0  0  0  0
    5.3549   -9.6322   18.3190 C   0  0  0  0  0  0  0  0  0  0  0  0
   10.3704   -4.9638   18.6510 C   0  0  0  0  0  0  0  0  0  0  0  0
    5.5935   -8.6419   17.4234 C   0  0  0  0  0  0  0  0  0  0  0  0
   13.0726   -4.6648   23.3394 O   0  0  0  0  0  0  0  0  0  0  0  0
    8.5955   -6.0705   17.3996 C   0  0  0  0  0  0  0  0  0  0  0  0
    4.6223   -8.3832   16.5030 C   0  0  0  0  0  0  0  0  0  0  0  0
   12.4690   -5.2624   19.9024 C   0  0  0  0  0  0  0  0  0  0  0  0
    3.2548   -9.9919   17.4189 C   0  0  0  0  0  0  0  0  0  0  0  0
   12.4767   -4.7393   22.1790 C   0  0  0  0  0  0  0  0  0  0  0  0
    7.8593   -5.3772   15.3569 N   0  0  0  0  0  0  0  0  0  0  0  0
    7.4412   -6.9038   16.9283 C   0  0  0  0  0  0  0  0  0  0  0  0
  1 21  4  0
  1 23  4  0
  2  5  1  0
  2 13  4  0
  2 16  4  0
  3  6  4  0
  3  7  4  0
  4 13  4  0
  4 19  4  0
  4 24  4  0
  6 23  4  0
  7 16  1  0
  7 21  4  0
  8 18  1  0
  9 20  4  0
  9 22  4  0
 10 17  1  0
 10 25  1  0
 11 16  4  0
 11 19  4  0
 12 15  4  0
 12 22  4  0
 14 24  4  0
 14 25  4  0
 15 17  4  0
 17 20  4  0
 18 23  1  0
 19 25  4  0
M  END
$$$$

 Created by Python create_sdf_string function

 25 28  0  0  0  0  0  0  0  0999 V2000
   13.1533   -5.2399   21.0682 C   0  0  0  0  0  0  0  0  0  0  0  0
   10.4729   -4.0295   17.6135 C   0  0  0  0  0  0  0  0  0  0  0  0
   10.4789   -4.3641   20.9564 C   0  0  0  0  0  0  0  0  0  0  0  0
    8.7421   -5.1412   16.3650 C   0  0  0  0  0  0  0  0  0  0  0  0
   11.4353   -2.9204   17.8044 C   0  0  0  0  0  0  0  0  0  0  0  0
   11.1529   -4.3028   22.1277 C   0  0  0  0  0  0  0  0  0  0  0  0
   11.1290   -4.8502   19.8052 C   0  0  0  0  0  0  0  0  0  0  0  0
   12.4329   -4.2159   24.4224 C   0  0  0  0  0  0  0  0  0  0  0  0
    3.4740   -9.0387   16.5022 C   0  0  0  0  0  0  0  0  0  0  0  0
    6.8384   -7.9290   17.5282 N   0  0  0  0  0  0  0  0  0  0  0  0
    9.4126   -5.9853   18.4899 C   0  0  0  0  0  0  0  0  0  0  0  0
    4.2064  -10.3242   18.3302 C   0  0  0  0  0  0  0  0  0  0  0  0
    9.6599   -4.1551   16.4796 N   0  0  0  0  0  0  0  0  0  0  0  0
    7.0644   -6.4612   15.7375 N   0  0  0  0  0  0  0  0  0  0  0  0
    5.3549   -9.6322   18.3190 C   0  0  0  0  0  0  0  0  0  0  0  0
   10.3704   -4.9638   18.6510 C   0  0  0  0  0  0  0  0  0  0  0  0
    5.5935   -8.6419   17.4234 C   0  0  0  0  0  0  0  0  0  0  0  0
   13.0726   -4.6648   23.3394 O   0  0  0  0  0  0  0  0  0  0  0  0
    8.5955   -6.0705   17.3996 C   0  0  0  0  0  0  0  0  0  0  0  0
    4.6223   -8.3832   16.5030 C   0  0  0  0  0  0  0  0  0  0  0  0
   12.4690   -5.2624   19.9024 C   0  0  0  0  0  0  0  0  0  0  0  0
    3.2548   -9.9919   17.4189 C   0  0  0  0  0  0  0  0  0  0  0  0
   12.4767   -4.7393   22.1790 C   0  0  0  0  0  0  0  0  0  0  0  0
    7.8593   -5.3772   15.3569 N   0  0  0  0  0  0  0  0  0  0  0  0
    7.4412   -6.9038   16.9283 C   0  0  0  0  0  0  0  0  0  0  0  0
  1 21  4  0
  1 23  4  0
  2  5  1  0
  2 13  4  0
  2 16  4  0
  3  6  4  0
  3  7  4  0
  4 13  4  0
  4 19  4  0
  4 24  4  0
  6 23  4  0
  7 16  1  0
  7 21  4  0
  8 18  1  0
  9 20  4  0
  9 22  4  0
 10 17  1  0
 10 25  1  0
 11 16  4  0
 11 19  4  0
 12 15  4  0
 12 22  4  0
 14 24  4  0
 14 25  4  0
 15 17  4  0
 17 20  4  0
 18 23  1  0
 19 25  4  0
M  END
$$$$

 Created by Python create_sdf_string function

 25 28  0  0  0  0  0  0  0  0999 V2000
   13.1533   -5.2399   21.0682 C   0  0  0  0  0  0  0  0  0  0  0  0
   10.4729   -4.0295   17.6135 C   0  0  0  0  0  0  0  0  0  0  0  0
   10.4789   -4.3641   20.9564 C   0  0  0  0  0  0  0  0  0  0  0  0
    8.7421   -5.1412   16.3650 C   0  0  0  0  0  0  0  0  0  0  0  0
   11.4353   -2.9204   17.8044 C   0  0  0  0  0  0  0  0  0  0  0  0
   11.1529   -4.3028   22.1277 C   0  0  0  0  0  0  0  0  0  0  0  0
   11.1290   -4.8502   19.8052 C   0  0  0  0  0  0  0  0  0  0  0  0
   12.4329   -4.2159   24.4224 C   0  0  0  0  0  0  0  0  0  0  0  0
    3.4740   -9.0387   16.5022 C   0  0  0  0  0  0  0  0  0  0  0  0
    6.8384   -7.9290   17.5282 N   0  0  0  0  0  0  0  0  0  0  0  0
    9.4126   -5.9853   18.4899 C   0  0  0  0  0  0  0  0  0  0  0  0
    4.2064  -10.3242   18.3302 C   0  0  0  0  0  0  0  0  0  0  0  0
    9.6599   -4.1551   16.4796 N   0  0  0  0  0  0  0  0  0  0  0  0
    7.0644   -6.4612   15.7375 N   0  0  0  0  0  0  0  0  0  0  0  0
    5.3549   -9.6322   18.3190 C   0  0  0  0  0  0  0  0  0  0  0  0
   10.3704   -4.9638   18.6510 C   0  0  0  0  0  0  0  0  0  0  0  0
    5.5935   -8.6419   17.4234 C   0  0  0  0  0  0  0  0  0  0  0  0
   13.0726   -4.6648   23.3394 O   0  0  0  0  0  0  0  0  0  0  0  0
    8.5955   -6.0705   17.3996 C   0  0  0  0  0  0  0  0  0  0  0  0
    4.6223   -8.3832   16.5030 C   0  0  0  0  0  0  0  0  0  0  0  0
   12.4690   -5.2624   19.9024 C   0  0  0  0  0  0  0  0  0  0  0  0
    3.2548   -9.9919   17.4189 C   0  0  0  0  0  0  0  0  0  0  0  0
   12.4767   -4.7393   22.1790 C   0  0  0  0  0  0  0  0  0  0  0  0
    7.8593   -5.3772   15.3569 N   0  0  0  0  0  0  0  0  0  0  0  0
    7.4412   -6.9038   16.9283 C   0  0  0  0  0  0  0  0  0  0  0  0
  1 21  4  0
  1 23  4  0
  2  5  1  0
  2 13  4  0
  2 16  4  0
  3  6  4  0
  3  7  4  0
  4 13  4  0
  4 19  4  0
  4 24  4  0
  6 23  4  0
  7 16  1  0
  7 21  4  0
  8 18  1  0
  9 20  4  0
  9 22  4  0
 10 17  1  0
 10 25  1  0
 11 16  4  0
 11 19  4  0
 12 15  4  0
 12 22  4  0
 14 24  4  0
 14 25  4  0
 15 17  4  0
 17 20  4  0
 18 23  1  0
 19 25  4  0
M  END
$$$$

 Created by Python create_sdf_string function

 25 28  0  0  0  0  0  0  0  0999 V2000
   13.1533   -5.2399   21.0682 C   0  0  0  0  0  0  0  0  0  0  0  0
   10.4729   -4.0295   17.6135 C   0  0  0  0  0  0  0  0  0  0  0  0
   10.4789   -4.3641   20.9564 C   0  0  0  0  0  0  0  0  0  0  0  0
    8.7421   -5.1412   16.3650 C   0  0  0  0  0  0  0  0  0  0  0  0
   11.4353   -2.9204   17.8044 C   0  0  0  0  0  0  0  0  0  0  0  0
   11.1529   -4.3028   22.1277 C   0  0  0  0  0  0  0  0  0  0  0  0
   11.1290   -4.8502   19.8052 C   0  0  0  0  0  0  0  0  0  0  0  0
   12.4329   -4.2159   24.4224 C   0  0  0  0  0  0  0  0  0  0  0  0
    3.4740   -9.0387   16.5022 C   0  0  0  0  0  0  0  0  0  0  0  0
    6.8384   -7.9290   17.5282 N   0  0  0  0  0  0  0  0  0  0  0  0
    9.4126   -5.9853   18.4899 C   0  0  0  0  0  0  0  0  0  0  0  0
    4.2064  -10.3242   18.3302 C   0  0  0  0  0  0  0  0  0  0  0  0
    9.6599   -4.1551   16.4796 N   0  0  0  0  0  0  0  0  0  0  0  0
    7.0644   -6.4612   15.7375 N   0  0  0  0  0  0  0  0  0  0  0  0
    5.3549   -9.6322   18.3190 C   0  0  0  0  0  0  0  0  0  0  0  0
   10.3704   -4.9638   18.6510 C   0  0  0  0  0  0  0  0  0  0  0  0
    5.5935   -8.6419   17.4234 C   0  0  0  0  0  0  0  0  0  0  0  0
   13.0726   -4.6648   23.3394 O   0  0  0  0  0  0  0  0  0  0  0  0
    8.5955   -6.0705   17.3996 C   0  0  0  0  0  0  0  0  0  0  0  0
    4.6223   -8.3832   16.5030 C   0  0  0  0  0  0  0  0  0  0  0  0
   12.4690   -5.2624   19.9024 C   0  0  0  0  0  0  0  0  0  0  0  0
    3.2548   -9.9919   17.4189 C   0  0  0  0  0  0  0  0  0  0  0  0
   12.4767   -4.7393   22.1790 C   0  0  0  0  0  0  0  0  0  0  0  0
    7.8593   -5.3772   15.3569 N   0  0  0  0  0  0  0  0  0  0  0  0
    7.4412   -6.9038   16.9283 C   0  0  0  0  0  0  0  0  0  0  0  0
  1 21  4  0
  1 23  4  0
  2  5  1  0
  2 13  4  0
  2 16  4  0
  3  6  4  0
  3  7  4  0
  4 13  4  0
  4 19  4  0
  4 24  4  0
  6 23  4  0
  7 16  1  0
  7 21  4  0
  8 18  1  0
  9 20  4  0
  9 22  4  0
 10 17  1  0
 10 25  1  0
 11 16  4  0
 11 19  4  0
 12 15  4  0
 12 22  4  0
 14 24  4  0
 14 25  4  0
 15 17  4  0
 17 20  4  0
 18 23  1  0
 19 25  4  0
M  END
$$$$

 Created by Python create_sdf_string function

 25 28  0  0  0  0  0  0  0  0999 V2000
   13.1533   -5.2399   21.0682 C   0  0  0  0  0  0  0  0  0  0  0  0
   10.4729   -4.0295   17.6135 C   0  0  0  0  0  0  0  0  0  0  0  0
   10.4789   -4.3641   20.9564 C   0  0  0  0  0  0  0  0  0  0  0  0
    8.7421   -5.1412   16.3650 C   0  0  0  0  0  0  0  0  0  0  0  0
   11.4353   -2.9204   17.8044 C   0  0  0  0  0  0  0  0  0  0  0  0
   11.1529   -4.3028   22.1277 C   0  0  0  0  0  0  0  0  0  0  0  0
   11.1290   -4.8502   19.8052 C   0  0  0  0  0  0  0  0  0  0  0  0
   12.4329   -4.2159   24.4224 C   0  0  0  0  0  0  0  0  0  0  0  0
    3.4740   -9.0387   16.5022 C   0  0  0  0  0  0  0  0  0  0  0  0
    6.8384   -7.9290   17.5282 N   0  0  0  0  0  0  0  0  0  0  0  0
    9.4126   -5.9853   18.4899 C   0  0  0  0  0  0  0  0  0  0  0  0
    4.2064  -10.3242   18.3302 C   0  0  0  0  0  0  0  0  0  0  0  0
    9.6599   -4.1551   16.4796 N   0  0  0  0  0  0  0  0  0  0  0  0
    7.0644   -6.4612   15.7375 N   0  0  0  0  0  0  0  0  0  0  0  0
    5.3549   -9.6322   18.3190 C   0  0  0  0  0  0  0  0  0  0  0  0
   10.3704   -4.9638   18.6510 C   0  0  0  0  0  0  0  0  0  0  0  0
    5.5935   -8.6419   17.4234 C   0  0  0  0  0  0  0  0  0  0  0  0
   13.0726   -4.6648   23.3394 O   0  0  0  0  0  0  0  0  0  0  0  0
    8.5955   -6.0705   17.3996 C   0  0  0  0  0  0  0  0  0  0  0  0
    4.6223   -8.3832   16.5030 C   0  0  0  0  0  0  0  0  0  0  0  0
   12.4690   -5.2624   19.9024 C   0  0  0  0  0  0  0  0  0  0  0  0
    3.2548   -9.9919   17.4189 C   0  0  0  0  0  0  0  0  0  0  0  0
   12.4767   -4.7393   22.1790 C   0  0  0  0  0  0  0  0  0  0  0  0
    7.8593   -5.3772   15.3569 N   0  0  0  0  0  0  0  0  0  0  0  0
    7.4412   -6.9038   16.9283 C   0  0  0  0  0  0  0  0  0  0  0  0
  1 21  4  0
  1 23  4  0
  2  5  1  0
  2 13  4  0
  2 16  4  0
  3  6  4  0
  3  7  4  0
  4 13  4  0
  4 19  4  0
  4 24  4  0
  6 23  4  0
  7 16  1  0
  7 21  4  0
  8 18  1  0
  9 20  4  0
  9 22  4  0
 10 17  1  0
 10 25  1  0
 11 16  4  0
 11 19  4  0
 12 15  4  0
 12 22  4  0
 14 24  4  0
 14 25  4  0
 15 17  4  0
 17 20  4  0
 18 23  1  0
 19 25  4  0
M  END
$$$$

 Created by Python create_sdf_string function

 25 28  0  0  0  0  0  0  0  0999 V2000
   13.1533   -5.2399   21.0682 C   0  0  0  0  0  0  0  0  0  0  0  0
   10.4729   -4.0295   17.6135 C   0  0  0  0  0  0  0  0  0  0  0  0
   10.4789   -4.3641   20.9564 C   0  0  0  0  0  0  0  0  0  0  0  0
    8.7421   -5.1412   16.3650 C   0  0  0  0  0  0  0  0  0  0  0  0
   11.4353   -2.9204   17.8044 C   0  0  0  0  0  0  0  0  0  0  0  0
   11.1529   -4.3028   22.1277 C   0  0  0  0  0  0  0  0  0  0  0  0
   11.1290   -4.8502   19.8052 C   0  0  0  0  0  0  0  0  0  0  0  0
   12.4329   -4.2159   24.4224 C   0  0  0  0  0  0  0  0  0  0  0  0
    3.4740   -9.0387   16.5022 C   0  0  0  0  0  0  0  0  0  0  0  0
    6.8384   -7.9290   17.5282 N   0  0  0  0  0  0  0  0  0  0  0  0
    9.4126   -5.9853   18.4899 C   0  0  0  0  0  0  0  0  0  0  0  0
    4.2064  -10.3242   18.3302 C   0  0  0  0  0  0  0  0  0  0  0  0
    9.6599   -4.1551   16.4796 N   0  0  0  0  0  0  0  0  0  0  0  0
    7.0644   -6.4612   15.7375 N   0  0  0  0  0  0  0  0  0  0  0  0
    5.3549   -9.6322   18.3190 C   0  0  0  0  0  0  0  0  0  0  0  0
   10.3704   -4.9638   18.6510 C   0  0  0  0  0  0  0  0  0  0  0  0
    5.5935   -8.6419   17.4234 C   0  0  0  0  0  0  0  0  0  0  0  0
   13.0726   -4.6648   23.3394 O   0  0  0  0  0  0  0  0  0  0  0  0
    8.5955   -6.0705   17.3996 C   0  0  0  0  0  0  0  0  0  0  0  0
    4.6223   -8.3832   16.5030 C   0  0  0  0  0  0  0  0  0  0  0  0
   12.4690   -5.2624   19.9024 C   0  0  0  0  0  0  0  0  0  0  0  0
    3.2548   -9.9919   17.4189 C   0  0  0  0  0  0  0  0  0  0  0  0
   12.4767   -4.7393   22.1790 C   0  0  0  0  0  0  0  0  0  0  0  0
    7.8593   -5.3772   15.3569 N   0  0  0  0  0  0  0  0  0  0  0  0
    7.4412   -6.9038   16.9283 C   0  0  0  0  0  0  0  0  0  0  0  0
  1 21  4  0
  1 23  4  0
  2  5  1  0
  2 13  4  0
  2 16  4  0
  3  6  4  0
  3  7  4  0
  4 13  4  0
  4 19  4  0
  4 24  4  0
  6 23  4  0
  7 16  1  0
  7 21  4  0
  8 18  1  0
  9 20  4  0
  9 22  4  0
 10 17  1  0
 10 25  1  0
 11 16  4  0
 11 19  4  0
 12 15  4  0
 12 22  4  0
 14 24  4  0
 14 25  4  0
 15 17  4  0
 17 20  4  0
 18 23  1  0
 19 25  4  0
M  END
$$$$

 Created by Python create_sdf_string function

 25 28  0  0  0  0  0  0  0  0999 V2000
   13.1533   -5.2399   21.0682 C   0  0  0  0  0  0  0  0  0  0  0  0
   10.4729   -4.0295   17.6135 C   0  0  0  0  0  0  0  0  0  0  0  0
   10.4789   -4.3641   20.9564 C   0  0  0  0  0  0  0  0  0  0  0  0
    8.7421   -5.1412   16.3650 C   0  0  0  0  0  0  0  0  0  0  0  0
   11.4353   -2.9204   17.8044 C   0  0  0  0  0  0  0  0  0  0  0  0
   11.1529   -4.3028   22.1277 C   0  0  0  0  0  0  0  0  0  0  0  0
   11.1290   -4.8502   19.8052 C   0  0  0  0  0  0  0  0  0  0  0  0
   12.4329   -4.2159   24.4224 C   0  0  0  0  0  0  0  0  0  0  0  0
    3.4740   -9.0387   16.5022 C   0  0  0  0  0  0  0  0  0  0  0  0
    6.8384   -7.9290   17.5282 N   0  0  0  0  0  0  0  0  0  0  0  0
    9.4126   -5.9853   18.4899 C   0  0  0  0  0  0  0  0  0  0  0  0
    4.2064  -10.3242   18.3302 C   0  0  0  0  0  0  0  0  0  0  0  0
    9.6599   -4.1551   16.4796 N   0  0  0  0  0  0  0  0  0  0  0  0
    7.0644   -6.4612   15.7375 N   0  0  0  0  0  0  0  0  0  0  0  0
    5.3549   -9.6322   18.3190 C   0  0  0  0  0  0  0  0  0  0  0  0
   10.3704   -4.9638   18.6510 C   0  0  0  0  0  0  0  0  0  0  0  0
    5.5935   -8.6419   17.4234 C   0  0  0  0  0  0  0  0  0  0  0  0
   13.0726   -4.6648   23.3394 O   0  0  0  0  0  0  0  0  0  0  0  0
    8.5955   -6.0705   17.3996 C   0  0  0  0  0  0  0  0  0  0  0  0
    4.6223   -8.3832   16.5030 C   0  0  0  0  0  0  0  0  0  0  0  0
   12.4690   -5.2624   19.9024 C   0  0  0  0  0  0  0  0  0  0  0  0
    3.2548   -9.9919   17.4189 C   0  0  0  0  0  0  0  0  0  0  0  0
   12.4767   -4.7393   22.1790 C   0  0  0  0  0  0  0  0  0  0  0  0
    7.8593   -5.3772   15.3569 N   0  0  0  0  0  0  0  0  0  0  0  0
    7.4412   -6.9038   16.9283 C   0  0  0  0  0  0  0  0  0  0  0  0
  1 21  4  0
  1 23  4  0
  2  5  1  0
  2 13  4  0
  2 16  4  0
  3  6  4  0
  3  7  4  0
  4 13  4  0
  4 19  4  0
  4 24  4  0
  6 23  4  0
  7 16  1  0
  7 21  4  0
  8 18  1  0
  9 20  4  0
  9 22  4  0
 10 17  1  0
 10 25  1  0
 11 16  4  0
 11 19  4  0
 12 15  4  0
 12 22  4  0
 14 24  4  0
 14 25  4  0
 15 17  4  0
 17 20  4  0
 18 23  1  0
 19 25  4  0
M  END
$$$$

 Created by Python create_sdf_string function

 25 28  0  0  0  0  0  0  0  0999 V2000
   13.1533   -5.2399   21.0682 C   0  0  0  0  0  0  0  0  0  0  0  0
   10.4729   -4.0295   17.6135 C   0  0  0  0  0  0  0  0  0  0  0  0
   10.4789   -4.3641   20.9564 C   0  0  0  0  0  0  0  0  0  0  0  0
    8.7421   -5.1412   16.3650 C   0  0  0  0  0  0  0  0  0  0  0  0
   11.4353   -2.9204   17.8044 C   0  0  0  0  0  0  0  0  0  0  0  0
   11.1529   -4.3028   22.1277 C   0  0  0  0  0  0  0  0  0  0  0  0
   11.1290   -4.8502   19.8052 C   0  0  0  0  0  0  0  0  0  0  0  0
   12.4329   -4.2159   24.4224 C   0  0  0  0  0  0  0  0  0  0  0  0
    3.4740   -9.0387   16.5022 C   0  0  0  0  0  0  0  0  0  0  0  0
    6.8384   -7.9290   17.5282 N   0  0  0  0  0  0  0  0  0  0  0  0
    9.4126   -5.9853   18.4899 C   0  0  0  0  0  0  0  0  0  0  0  0
    4.2064  -10.3242   18.3302 C   0  0  0  0  0  0  0  0  0  0  0  0
    9.6599   -4.1551   16.4796 N   0  0  0  0  0  0  0  0  0  0  0  0
    7.0644   -6.4612   15.7375 N   0  0  0  0  0  0  0  0  0  0  0  0
    5.3549   -9.6322   18.3190 C   0  0  0  0  0  0  0  0  0  0  0  0
   10.3704   -4.9638   18.6510 C   0  0  0  0  0  0  0  0  0  0  0  0
    5.5935   -8.6419   17.4234 C   0  0  0  0  0  0  0  0  0  0  0  0
   13.0726   -4.6648   23.3394 O   0  0  0  0  0  0  0  0  0  0  0  0
    8.5955   -6.0705   17.3996 C   0  0  0  0  0  0  0  0  0  0  0  0
    4.6223   -8.3832   16.5030 C   0  0  0  0  0  0  0  0  0  0  0  0
   12.4690   -5.2624   19.9024 C   0  0  0  0  0  0  0  0  0  0  0  0
    3.2548   -9.9919   17.4189 C   0  0  0  0  0  0  0  0  0  0  0  0
   12.4767   -4.7393   22.1790 C   0  0  0  0  0  0  0  0  0  0  0  0
    7.8593   -5.3772   15.3569 N   0  0  0  0  0  0  0  0  0  0  0  0
    7.4412   -6.9038   16.9283 C   0  0  0  0  0  0  0  0  0  0  0  0
  1 21  4  0
  1 23  4  0
  2  5  1  0
  2 13  4  0
  2 16  4  0
  3  6  4  0
  3  7  4  0
  4 13  4  0
  4 19  4  0
  4 24  4  0
  6 23  4  0
  7 16  1  0
  7 21  4  0
  8 18  1  0
  9 20  4  0
  9 22  4  0
 10 17  1  0
 10 25  1  0
 11 16  4  0
 11 19  4  0
 12 15  4  0
 12 22  4  0
 14 24  4  0
 14 25  4  0
 15 17  4  0
 17 20  4  0
 18 23  1  0
 19 25  4  0
M  END
$$$$

 Created by Python create_sdf_string function

 25 28  0  0  0  0  0  0  0  0999 V2000
   13.1533   -5.2399   21.0682 C   0  0  0  0  0  0  0  0  0  0  0  0
   10.4729   -4.0295   17.6135 C   0  0  0  0  0  0  0  0  0  0  0  0
   10.4789   -4.3641   20.9564 C   0  0  0  0  0  0  0  0  0  0  0  0
    8.7421   -5.1412   16.3650 C   0  0  0  0  0  0  0  0  0  0  0  0
   11.4353   -2.9204   17.8044 C   0  0  0  0  0  0  0  0  0  0  0  0
   11.1529   -4.3028   22.1277 C   0  0  0  0  0  0  0  0  0  0  0  0
   11.1290   -4.8502   19.8052 C   0  0  0  0  0  0  0  0  0  0  0  0
   12.4329   -4.2159   24.4224 C   0  0  0  0  0  0  0  0  0  0  0  0
    3.4740   -9.0387   16.5022 C   0  0  0  0  0  0  0  0  0  0  0  0
    6.8384   -7.9290   17.5282 N   0  0  0  0  0  0  0  0  0  0  0  0
    9.4126   -5.9853   18.4899 C   0  0  0  0  0  0  0  0  0  0  0  0
    4.2064  -10.3242   18.3302 C   0  0  0  0  0  0  0  0  0  0  0  0
    9.6599   -4.1551   16.4796 N   0  0  0  0  0  0  0  0  0  0  0  0
    7.0644   -6.4612   15.7375 N   0  0  0  0  0  0  0  0  0  0  0  0
    5.3549   -9.6322   18.3190 C   0  0  0  0  0  0  0  0  0  0  0  0
   10.3704   -4.9638   18.6510 C   0  0  0  0  0  0  0  0  0  0  0  0
    5.5935   -8.6419   17.4234 C   0  0  0  0  0  0  0  0  0  0  0  0
   13.0726   -4.6648   23.3394 O   0  0  0  0  0  0  0  0  0  0  0  0
    8.5955   -6.0705   17.3996 C   0  0  0  0  0  0  0  0  0  0  0  0
    4.6223   -8.3832   16.5030 C   0  0  0  0  0  0  0  0  0  0  0  0
   12.4690   -5.2624   19.9024 C   0  0  0  0  0  0  0  0  0  0  0  0
    3.2548   -9.9919   17.4189 C   0  0  0  0  0  0  0  0  0  0  0  0
   12.4767   -4.7393   22.1790 C   0  0  0  0  0  0  0  0  0  0  0  0
    7.8593   -5.3772   15.3569 N   0  0  0  0  0  0  0  0  0  0  0  0
    7.4412   -6.9038   16.9283 C   0  0  0  0  0  0  0  0  0  0  0  0
  1 21  4  0
  1 23  4  0
  2  5  1  0
  2 13  4  0
  2 16  4  0
  3  6  4  0
  3  7  4  0
  4 13  4  0
  4 19  4  0
  4 24  4  0
  6 23  4  0
  7 16  1  0
  7 21  4  0
  8 18  1  0
  9 20  4  0
  9 22  4  0
 10 17  1  0
 10 25  1  0
 11 16  4  0
 11 19  4  0
 12 15  4  0
 12 22  4  0
 14 24  4  0
 14 25  4  0
 15 17  4  0
 17 20  4  0
 18 23  1  0
 19 25  4  0
M  END
$$$$

 Created by Python create_sdf_string function

 25 28  0  0  0  0  0  0  0  0999 V2000
   13.1533   -5.2399   21.0682 C   0  0  0  0  0  0  0  0  0  0  0  0
   10.4729   -4.0295   17.6135 C   0  0  0  0  0  0  0  0  0  0  0  0
   10.4789   -4.3641   20.9564 C   0  0  0  0  0  0  0  0  0  0  0  0
    8.7421   -5.1412   16.3650 C   0  0  0  0  0  0  0  0  0  0  0  0
   11.4353   -2.9204   17.8044 C   0  0  0  0  0  0  0  0  0  0  0  0
   11.1529   -4.3028   22.1277 C   0  0  0  0  0  0  0  0  0  0  0  0
   11.1290   -4.8502   19.8052 C   0  0  0  0  0  0  0  0  0  0  0  0
   12.4329   -4.2159   24.4224 C   0  0  0  0  0  0  0  0  0  0  0  0
    3.4740   -9.0387   16.5022 C   0  0  0  0  0  0  0  0  0  0  0  0
    6.8384   -7.9290   17.5282 N   0  0  0  0  0  0  0  0  0  0  0  0
    9.4126   -5.9853   18.4899 C   0  0  0  0  0  0  0  0  0  0  0  0
    4.2064  -10.3242   18.3302 C   0  0  0  0  0  0  0  0  0  0  0  0
    9.6599   -4.1551   16.4796 N   0  0  0  0  0  0  0  0  0  0  0  0
    7.0644   -6.4612   15.7375 N   0  0  0  0  0  0  0  0  0  0  0  0
    5.3549   -9.6322   18.3190 C   0  0  0  0  0  0  0  0  0  0  0  0
   10.3704   -4.9638   18.6510 C   0  0  0  0  0  0  0  0  0  0  0  0
    5.5935   -8.6419   17.4234 C   0  0  0  0  0  0  0  0  0  0  0  0
   13.0726   -4.6648   23.3394 O   0  0  0  0  0  0  0  0  0  0  0  0
    8.5955   -6.0705   17.3996 C   0  0  0  0  0  0  0  0  0  0  0  0
    4.6223   -8.3832   16.5030 C   0  0  0  0  0  0  0  0  0  0  0  0
   12.4690   -5.2624   19.9024 C   0  0  0  0  0  0  0  0  0  0  0  0
    3.2548   -9.9919   17.4189 C   0  0  0  0  0  0  0  0  0  0  0  0
   12.4767   -4.7393   22.1790 C   0  0  0  0  0  0  0  0  0  0  0  0
    7.8593   -5.3772   15.3569 N   0  0  0  0  0  0  0  0  0  0  0  0
    7.4412   -6.9038   16.9283 C   0  0  0  0  0  0  0  0  0  0  0  0
  1 21  4  0
  1 23  4  0
  2  5  1  0
  2 13  4  0
  2 16  4  0
  3  6  4  0
  3  7  4  0
  4 13  4  0
  4 19  4  0
  4 24  4  0
  6 23  4  0
  7 16  1  0
  7 21  4  0
  8 18  1  0
  9 20  4  0
  9 22  4  0
 10 17  1  0
 10 25  1  0
 11 16  4  0
 11 19  4  0
 12 15  4  0
 12 22  4  0
 14 24  4  0
 14 25  4  0
 15 17  4  0
 17 20  4  0
 18 23  1  0
 19 25  4  0
M  END
$$$$

 Created by Python create_sdf_string function

 25 28  0  0  0  0  0  0  0  0999 V2000
   13.1533   -5.2399   21.0682 C   0  0  0  0  0  0  0  0  0  0  0  0
   10.4729   -4.0295   17.6135 C   0  0  0  0  0  0  0  0  0  0  0  0
   10.4789   -4.3641   20.9564 C   0  0  0  0  0  0  0  0  0  0  0  0
    8.7421   -5.1412   16.3650 C   0  0  0  0  0  0  0  0  0  0  0  0
   11.4353   -2.9204   17.8044 C   0  0  0  0  0  0  0  0  0  0  0  0
   11.1529   -4.3028   22.1277 C   0  0  0  0  0  0  0  0  0  0  0  0
   11.1290   -4.8502   19.8052 C   0  0  0  0  0  0  0  0  0  0  0  0
   12.4329   -4.2159   24.4224 C   0  0  0  0  0  0  0  0  0  0  0  0
    3.4740   -9.0387   16.5022 C   0  0  0  0  0  0  0  0  0  0  0  0
    6.8384   -7.9290   17.5282 N   0  0  0  0  0  0  0  0  0  0  0  0
    9.4126   -5.9853   18.4899 C   0  0  0  0  0  0  0  0  0  0  0  0
    4.2064  -10.3242   18.3302 C   0  0  0  0  0  0  0  0  0  0  0  0
    9.6599   -4.1551   16.4796 N   0  0  0  0  0  0  0  0  0  0  0  0
    7.0644   -6.4612   15.7375 N   0  0  0  0  0  0  0  0  0  0  0  0
    5.3549   -9.6322   18.3190 C   0  0  0  0  0  0  0  0  0  0  0  0
   10.3704   -4.9638   18.6510 C   0  0  0  0  0  0  0  0  0  0  0  0
    5.5935   -8.6419   17.4234 C   0  0  0  0  0  0  0  0  0  0  0  0
   13.0726   -4.6648   23.3394 O   0  0  0  0  0  0  0  0  0  0  0  0
    8.5955   -6.0705   17.3996 C   0  0  0  0  0  0  0  0  0  0  0  0
    4.6223   -8.3832   16.5030 C   0  0  0  0  0  0  0  0  0  0  0  0
   12.4690   -5.2624   19.9024 C   0  0  0  0  0  0  0  0  0  0  0  0
    3.2548   -9.9919   17.4189 C   0  0  0  0  0  0  0  0  0  0  0  0
   12.4767   -4.7393   22.1790 C   0  0  0  0  0  0  0  0  0  0  0  0
    7.8593   -5.3772   15.3569 N   0  0  0  0  0  0  0  0  0  0  0  0
    7.4412   -6.9038   16.9283 C   0  0  0  0  0  0  0  0  0  0  0  0
  1 21  4  0
  1 23  4  0
  2  5  1  0
  2 13  4  0
  2 16  4  0
  3  6  4  0
  3  7  4  0
  4 13  4  0
  4 19  4  0
  4 24  4  0
  6 23  4  0
  7 16  1  0
  7 21  4  0
  8 18  1  0
  9 20  4  0
  9 22  4  0
 10 17  1  0
 10 25  1  0
 11 16  4  0
 11 19  4  0
 12 15  4  0
 12 22  4  0
 14 24  4  0
 14 25  4  0
 15 17  4  0
 17 20  4  0
 18 23  1  0
 19 25  4  0
M  END
$$$$

 Created by Python create_sdf_string function

 25 28  0  0  0  0  0  0  0  0999 V2000
   13.1533   -5.2399   21.0682 C   0  0  0  0  0  0  0  0  0  0  0  0
   10.4729   -4.0295   17.6135 C   0  0  0  0  0  0  0  0  0  0  0  0
   10.4789   -4.3641   20.9564 C   0  0  0  0  0  0  0  0  0  0  0  0
    8.7421   -5.1412   16.3650 C   0  0  0  0  0  0  0  0  0  0  0  0
   11.4353   -2.9204   17.8044 C   0  0  0  0  0  0  0  0  0  0  0  0
   11.1529   -4.3028   22.1277 C   0  0  0  0  0  0  0  0  0  0  0  0
   11.1290   -4.8502   19.8052 C   0  0  0  0  0  0  0  0  0  0  0  0
   12.4329   -4.2159   24.4224 C   0  0  0  0  0  0  0  0  0  0  0  0
    3.4740   -9.0387   16.5022 C   0  0  0  0  0  0  0  0  0  0  0  0
    6.8384   -7.9290   17.5282 N   0  0  0  0  0  0  0  0  0  0  0  0
    9.4126   -5.9853   18.4899 C   0  0  0  0  0  0  0  0  0  0  0  0
    4.2064  -10.3242   18.3302 C   0  0  0  0  0  0  0  0  0  0  0  0
    9.6599   -4.1551   16.4796 N   0  0  0  0  0  0  0  0  0  0  0  0
    7.0644   -6.4612   15.7375 N   0  0  0  0  0  0  0  0  0  0  0  0
    5.3549   -9.6322   18.3190 C   0  0  0  0  0  0  0  0  0  0  0  0
   10.3704   -4.9638   18.6510 C   0  0  0  0  0  0  0  0  0  0  0  0
    5.5935   -8.6419   17.4234 C   0  0  0  0  0  0  0  0  0  0  0  0
   13.0726   -4.6648   23.3394 O   0  0  0  0  0  0  0  0  0  0  0  0
    8.5955   -6.0705   17.3996 C   0  0  0  0  0  0  0  0  0  0  0  0
    4.6223   -8.3832   16.5030 C   0  0  0  0  0  0  0  0  0  0  0  0
   12.4690   -5.2624   19.9024 C   0  0  0  0  0  0  0  0  0  0  0  0
    3.2548   -9.9919   17.4189 C   0  0  0  0  0  0  0  0  0  0  0  0
   12.4767   -4.7393   22.1790 C   0  0  0  0  0  0  0  0  0  0  0  0
    7.8593   -5.3772   15.3569 N   0  0  0  0  0  0  0  0  0  0  0  0
    7.4412   -6.9038   16.9283 C   0  0  0  0  0  0  0  0  0  0  0  0
  1 21  4  0
  1 23  4  0
  2  5  1  0
  2 13  4  0
  2 16  4  0
  3  6  4  0
  3  7  4  0
  4 13  4  0
  4 19  4  0
  4 24  4  0
  6 23  4  0
  7 16  1  0
  7 21  4  0
  8 18  1  0
  9 20  4  0
  9 22  4  0
 10 17  1  0
 10 25  1  0
 11 16  4  0
 11 19  4  0
 12 15  4  0
 12 22  4  0
 14 24  4  0
 14 25  4  0
 15 17  4  0
 17 20  4  0
 18 23  1  0
 19 25  4  0
M  END
$$$$

 Created by Python create_sdf_string function

 25 28  0  0  0  0  0  0  0  0999 V2000
   13.1533   -5.2399   21.0682 C   0  0  0  0  0  0  0  0  0  0  0  0
   10.4729   -4.0295   17.6135 C   0  0  0  0  0  0  0  0  0  0  0  0
   10.4789   -4.3641   20.9564 C   0  0  0  0  0  0  0  0  0  0  0  0
    8.7421   -5.1412   16.3650 C   0  0  0  0  0  0  0  0  0  0  0  0
   11.4353   -2.9204   17.8044 C   0  0  0  0  0  0  0  0  0  0  0  0
   11.1529   -4.3028   22.1277 C   0  0  0  0  0  0  0  0  0  0  0  0
   11.1290   -4.8502   19.8052 C   0  0  0  0  0  0  0  0  0  0  0  0
   12.4329   -4.2159   24.4224 C   0  0  0  0  0  0  0  0  0  0  0  0
    3.4740   -9.0387   16.5022 C   0  0  0  0  0  0  0  0  0  0  0  0
    6.8384   -7.9290   17.5282 N   0  0  0  0  0  0  0  0  0  0  0  0
    9.4126   -5.9853   18.4899 C   0  0  0  0  0  0  0  0  0  0  0  0
    4.2064  -10.3242   18.3302 C   0  0  0  0  0  0  0  0  0  0  0  0
    9.6599   -4.1551   16.4796 N   0  0  0  0  0  0  0  0  0  0  0  0
    7.0644   -6.4612   15.7375 N   0  0  0  0  0  0  0  0  0  0  0  0
    5.3549   -9.6322   18.3190 C   0  0  0  0  0  0  0  0  0  0  0  0
   10.3704   -4.9638   18.6510 C   0  0  0  0  0  0  0  0  0  0  0  0
    5.5935   -8.6419   17.4234 C   0  0  0  0  0  0  0  0  0  0  0  0
   13.0726   -4.6648   23.3394 O   0  0  0  0  0  0  0  0  0  0  0  0
    8.5955   -6.0705   17.3996 C   0  0  0  0  0  0  0  0  0  0  0  0
    4.6223   -8.3832   16.5030 C   0  0  0  0  0  0  0  0  0  0  0  0
   12.4690   -5.2624   19.9024 C   0  0  0  0  0  0  0  0  0  0  0  0
    3.2548   -9.9919   17.4189 C   0  0  0  0  0  0  0  0  0  0  0  0
   12.4767   -4.7393   22.1790 C   0  0  0  0  0  0  0  0  0  0  0  0
    7.8593   -5.3772   15.3569 N   0  0  0  0  0  0  0  0  0  0  0  0
    7.4412   -6.9038   16.9283 C   0  0  0  0  0  0  0  0  0  0  0  0
  1 21  4  0
  1 23  4  0
  2  5  1  0
  2 13  4  0
  2 16  4  0
  3  6  4  0
  3  7  4  0
  4 13  4  0
  4 19  4  0
  4 24  4  0
  6 23  4  0
  7 16  1  0
  7 21  4  0
  8 18  1  0
  9 20  4  0
  9 22  4  0
 10 17  1  0
 10 25  1  0
 11 16  4  0
 11 19  4  0
 12 15  4  0
 12 22  4  0
 14 24  4  0
 14 25  4  0
 15 17  4  0
 17 20  4  0
 18 23  1  0
 19 25  4  0
M  END
$$$$

 Created by Python create_sdf_string function

 25 28  0  0  0  0  0  0  0  0999 V2000
   13.1533   -5.2399   21.0682 C   0  0  0  0  0  0  0  0  0  0  0  0
   10.4729   -4.0295   17.6135 C   0  0  0  0  0  0  0  0  0  0  0  0
   10.4789   -4.3641   20.9564 C   0  0  0  0  0  0  0  0  0  0  0  0
    8.7421   -5.1412   16.3650 C   0  0  0  0  0  0  0  0  0  0  0  0
   11.4353   -2.9204   17.8044 C   0  0  0  0  0  0  0  0  0  0  0  0
   11.1529   -4.3028   22.1277 C   0  0  0  0  0  0  0  0  0  0  0  0
   11.1290   -4.8502   19.8052 C   0  0  0  0  0  0  0  0  0  0  0  0
   12.4329   -4.2159   24.4224 C   0  0  0  0  0  0  0  0  0  0  0  0
    3.4740   -9.0387   16.5022 C   0  0  0  0  0  0  0  0  0  0  0  0
    6.8384   -7.9290   17.5282 N   0  0  0  0  0  0  0  0  0  0  0  0
    9.4126   -5.9853   18.4899 C   0  0  0  0  0  0  0  0  0  0  0  0
    4.2064  -10.3242   18.3302 C   0  0  0  0  0  0  0  0  0  0  0  0
    9.6599   -4.1551   16.4796 N   0  0  0  0  0  0  0  0  0  0  0  0
    7.0644   -6.4612   15.7375 N   0  0  0  0  0  0  0  0  0  0  0  0
    5.3549   -9.6322   18.3190 C   0  0  0  0  0  0  0  0  0  0  0  0
   10.3704   -4.9638   18.6510 C   0  0  0  0  0  0  0  0  0  0  0  0
    5.5935   -8.6419   17.4234 C   0  0  0  0  0  0  0  0  0  0  0  0
   13.0726   -4.6648   23.3394 O   0  0  0  0  0  0  0  0  0  0  0  0
    8.5955   -6.0705   17.3996 C   0  0  0  0  0  0  0  0  0  0  0  0
    4.6223   -8.3832   16.5030 C   0  0  0  0  0  0  0  0  0  0  0  0
   12.4690   -5.2624   19.9024 C   0  0  0  0  0  0  0  0  0  0  0  0
    3.2548   -9.9919   17.4189 C   0  0  0  0  0  0  0  0  0  0  0  0
   12.4767   -4.7393   22.1790 C   0  0  0  0  0  0  0  0  0  0  0  0
    7.8593   -5.3772   15.3569 N   0  0  0  0  0  0  0  0  0  0  0  0
    7.4412   -6.9038   16.9283 C   0  0  0  0  0  0  0  0  0  0  0  0
  1 21  4  0
  1 23  4  0
  2  5  1  0
  2 13  4  0
  2 16  4  0
  3  6  4  0
  3  7  4  0
  4 13  4  0
  4 19  4  0
  4 24  4  0
  6 23  4  0
  7 16  1  0
  7 21  4  0
  8 18  1  0
  9 20  4  0
  9 22  4  0
 10 17  1  0
 10 25  1  0
 11 16  4  0
 11 19  4  0
 12 15  4  0
 12 22  4  0
 14 24  4  0
 14 25  4  0
 15 17  4  0
 17 20  4  0
 18 23  1  0
 19 25  4  0
M  END
$$$$

 Created by Python create_sdf_string function

 25 28  0  0  0  0  0  0  0  0999 V2000
   13.1533   -5.2399   21.0682 C   0  0  0  0  0  0  0  0  0  0  0  0
   10.4729   -4.0295   17.6135 C   0  0  0  0  0  0  0  0  0  0  0  0
   10.4789   -4.3641   20.9564 C   0  0  0  0  0  0  0  0  0  0  0  0
    8.7421   -5.1412   16.3650 C   0  0  0  0  0  0  0  0  0  0  0  0
   11.4353   -2.9204   17.8044 C   0  0  0  0  0  0  0  0  0  0  0  0
   11.1529   -4.3028   22.1277 C   0  0  0  0  0  0  0  0  0  0  0  0
   11.1290   -4.8502   19.8052 C   0  0  0  0  0  0  0  0  0  0  0  0
   12.4329   -4.2159   24.4224 C   0  0  0  0  0  0  0  0  0  0  0  0
    3.4740   -9.0387   16.5022 C   0  0  0  0  0  0  0  0  0  0  0  0
    6.8384   -7.9290   17.5282 N   0  0  0  0  0  0  0  0  0  0  0  0
    9.4126   -5.9853   18.4899 C   0  0  0  0  0  0  0  0  0  0  0  0
    4.2064  -10.3242   18.3302 C   0  0  0  0  0  0  0  0  0  0  0  0
    9.6599   -4.1551   16.4796 N   0  0  0  0  0  0  0  0  0  0  0  0
    7.0644   -6.4612   15.7375 N   0  0  0  0  0  0  0  0  0  0  0  0
    5.3549   -9.6322   18.3190 C   0  0  0  0  0  0  0  0  0  0  0  0
   10.3704   -4.9638   18.6510 C   0  0  0  0  0  0  0  0  0  0  0  0
    5.5935   -8.6419   17.4234 C   0  0  0  0  0  0  0  0  0  0  0  0
   13.0726   -4.6648   23.3394 O   0  0  0  0  0  0  0  0  0  0  0  0
    8.5955   -6.0705   17.3996 C   0  0  0  0  0  0  0  0  0  0  0  0
    4.6223   -8.3832   16.5030 C   0  0  0  0  0  0  0  0  0  0  0  0
   12.4690   -5.2624   19.9024 C   0  0  0  0  0  0  0  0  0  0  0  0
    3.2548   -9.9919   17.4189 C   0  0  0  0  0  0  0  0  0  0  0  0
   12.4767   -4.7393   22.1790 C   0  0  0  0  0  0  0  0  0  0  0  0
    7.8593   -5.3772   15.3569 N   0  0  0  0  0  0  0  0  0  0  0  0
    7.4412   -6.9038   16.9283 C   0  0  0  0  0  0  0  0  0  0  0  0
  1 21  4  0
  1 23  4  0
  2  5  1  0
  2 13  4  0
  2 16  4  0
  3  6  4  0
  3  7  4  0
  4 13  4  0
  4 19  4  0
  4 24  4  0
  6 23  4  0
  7 16  1  0
  7 21  4  0
  8 18  1  0
  9 20  4  0
  9 22  4  0
 10 17  1  0
 10 25  1  0
 11 16  4  0
 11 19  4  0
 12 15  4  0
 12 22  4  0
 14 24  4  0
 14 25  4  0
 15 17  4  0
 17 20  4  0
 18 23  1  0
 19 25  4  0
M  END
$$$$

 Created by Python create_sdf_string function

 25 28  0  0  0  0  0  0  0  0999 V2000
   13.1533   -5.2399   21.0682 C   0  0  0  0  0  0  0  0  0  0  0  0
   10.4729   -4.0295   17.6135 C   0  0  0  0  0  0  0  0  0  0  0  0
   10.4789   -4.3641   20.9564 C   0  0  0  0  0  0  0  0  0  0  0  0
    8.7421   -5.1412   16.3650 C   0  0  0  0  0  0  0  0  0  0  0  0
   11.4353   -2.9204   17.8044 C   0  0  0  0  0  0  0  0  0  0  0  0
   11.1529   -4.3028   22.1277 C   0  0  0  0  0  0  0  0  0  0  0  0
   11.1290   -4.8502   19.8052 C   0  0  0  0  0  0  0  0  0  0  0  0
   12.4329   -4.2159   24.4224 C   0  0  0  0  0  0  0  0  0  0  0  0
    3.4740   -9.0387   16.5022 C   0  0  0  0  0  0  0  0  0  0  0  0
    6.8384   -7.9290   17.5282 N   0  0  0  0  0  0  0  0  0  0  0  0
    9.4126   -5.9853   18.4899 C   0  0  0  0  0  0  0  0  0  0  0  0
    4.2064  -10.3242   18.3302 C   0  0  0  0  0  0  0  0  0  0  0  0
    9.6599   -4.1551   16.4796 N   0  0  0  0  0  0  0  0  0  0  0  0
    7.0644   -6.4612   15.7375 N   0  0  0  0  0  0  0  0  0  0  0  0
    5.3549   -9.6322   18.3190 C   0  0  0  0  0  0  0  0  0  0  0  0
   10.3704   -4.9638   18.6510 C   0  0  0  0  0  0  0  0  0  0  0  0
    5.5935   -8.6419   17.4234 C   0  0  0  0  0  0  0  0  0  0  0  0
   13.0726   -4.6648   23.3394 O   0  0  0  0  0  0  0  0  0  0  0  0
    8.5955   -6.0705   17.3996 C   0  0  0  0  0  0  0  0  0  0  0  0
    4.6223   -8.3832   16.5030 C   0  0  0  0  0  0  0  0  0  0  0  0
   12.4690   -5.2624   19.9024 C   0  0  0  0  0  0  0  0  0  0  0  0
    3.2548   -9.9919   17.4189 C   0  0  0  0  0  0  0  0  0  0  0  0
   12.4767   -4.7393   22.1790 C   0  0  0  0  0  0  0  0  0  0  0  0
    7.8593   -5.3772   15.3569 N   0  0  0  0  0  0  0  0  0  0  0  0
    7.4412   -6.9038   16.9283 C   0  0  0  0  0  0  0  0  0  0  0  0
  1 21  4  0
  1 23  4  0
  2  5  1  0
  2 13  4  0
  2 16  4  0
  3  6  4  0
  3  7  4  0
  4 13  4  0
  4 19  4  0
  4 24  4  0
  6 23  4  0
  7 16  1  0
  7 21  4  0
  8 18  1  0
  9 20  4  0
  9 22  4  0
 10 17  1  0
 10 25  1  0
 11 16  4  0
 11 19  4  0
 12 15  4  0
 12 22  4  0
 14 24  4  0
 14 25  4  0
 15 17  4  0
 17 20  4  0
 18 23  1  0
 19 25  4  0
M  END
$$$$

 Created by Python create_sdf_string function

 25 28  0  0  0  0  0  0  0  0999 V2000
   13.1533   -5.2399   21.0682 C   0  0  0  0  0  0  0  0  0  0  0  0
   10.4729   -4.0295   17.6135 C   0  0  0  0  0  0  0  0  0  0  0  0
   10.4789   -4.3641   20.9564 C   0  0  0  0  0  0  0  0  0  0  0  0
    8.7421   -5.1412   16.3650 C   0  0  0  0  0  0  0  0  0  0  0  0
   11.4353   -2.9204   17.8044 C   0  0  0  0  0  0  0  0  0  0  0  0
   11.1529   -4.3028   22.1277 C   0  0  0  0  0  0  0  0  0  0  0  0
   11.1290   -4.8502   19.8052 C   0  0  0  0  0  0  0  0  0  0  0  0
   12.4329   -4.2159   24.4224 C   0  0  0  0  0  0  0  0  0  0  0  0
    3.4740   -9.0387   16.5022 C   0  0  0  0  0  0  0  0  0  0  0  0
    6.8384   -7.9290   17.5282 N   0  0  0  0  0  0  0  0  0  0  0  0
    9.4126   -5.9853   18.4899 C   0  0  0  0  0  0  0  0  0  0  0  0
    4.2064  -10.3242   18.3302 C   0  0  0  0  0  0  0  0  0  0  0  0
    9.6599   -4.1551   16.4796 N   0  0  0  0  0  0  0  0  0  0  0  0
    7.0644   -6.4612   15.7375 N   0  0  0  0  0  0  0  0  0  0  0  0
    5.3549   -9.6322   18.3190 C   0  0  0  0  0  0  0  0  0  0  0  0
   10.3704   -4.9638   18.6510 C   0  0  0  0  0  0  0  0  0  0  0  0
    5.5935   -8.6419   17.4234 C   0  0  0  0  0  0  0  0  0  0  0  0
   13.0726   -4.6648   23.3394 O   0  0  0  0  0  0  0  0  0  0  0  0
    8.5955   -6.0705   17.3996 C   0  0  0  0  0  0  0  0  0  0  0  0
    4.6223   -8.3832   16.5030 C   0  0  0  0  0  0  0  0  0  0  0  0
   12.4690   -5.2624   19.9024 C   0  0  0  0  0  0  0  0  0  0  0  0
    3.2548   -9.9919   17.4189 C   0  0  0  0  0  0  0  0  0  0  0  0
   12.4767   -4.7393   22.1790 C   0  0  0  0  0  0  0  0  0  0  0  0
    7.8593   -5.3772   15.3569 N   0  0  0  0  0  0  0  0  0  0  0  0
    7.4412   -6.9038   16.9283 C   0  0  0  0  0  0  0  0  0  0  0  0
  1 21  4  0
  1 23  4  0
  2  5  1  0
  2 13  4  0
  2 16  4  0
  3  6  4  0
  3  7  4  0
  4 13  4  0
  4 19  4  0
  4 24  4  0
  6 23  4  0
  7 16  1  0
  7 21  4  0
  8 18  1  0
  9 20  4  0
  9 22  4  0
 10 17  1  0
 10 25  1  0
 11 16  4  0
 11 19  4  0
 12 15  4  0
 12 22  4  0
 14 24  4  0
 14 25  4  0
 15 17  4  0
 17 20  4  0
 18 23  1  0
 19 25  4  0
M  END
$$$$

 Created by Python create_sdf_string function

 25 28  0  0  0  0  0  0  0  0999 V2000
   13.1533   -5.2399   21.0682 C   0  0  0  0  0  0  0  0  0  0  0  0
   10.4729   -4.0295   17.6135 C   0  0  0  0  0  0  0  0  0  0  0  0
   10.4789   -4.3641   20.9564 C   0  0  0  0  0  0  0  0  0  0  0  0
    8.7421   -5.1412   16.3650 C   0  0  0  0  0  0  0  0  0  0  0  0
   11.4353   -2.9204   17.8044 C   0  0  0  0  0  0  0  0  0  0  0  0
   11.1529   -4.3028   22.1277 C   0  0  0  0  0  0  0  0  0  0  0  0
   11.1290   -4.8502   19.8052 C   0  0  0  0  0  0  0  0  0  0  0  0
   12.4329   -4.2159   24.4224 C   0  0  0  0  0  0  0  0  0  0  0  0
    3.4740   -9.0387   16.5022 C   0  0  0  0  0  0  0  0  0  0  0  0
    6.8384   -7.9290   17.5282 N   0  0  0  0  0  0  0  0  0  0  0  0
    9.4126   -5.9853   18.4899 C   0  0  0  0  0  0  0  0  0  0  0  0
    4.2064  -10.3242   18.3302 C   0  0  0  0  0  0  0  0  0  0  0  0
    9.6599   -4.1551   16.4796 N   0  0  0  0  0  0  0  0  0  0  0  0
    7.0644   -6.4612   15.7375 N   0  0  0  0  0  0  0  0  0  0  0  0
    5.3549   -9.6322   18.3190 C   0  0  0  0  0  0  0  0  0  0  0  0
   10.3704   -4.9638   18.6510 C   0  0  0  0  0  0  0  0  0  0  0  0
    5.5935   -8.6419   17.4234 C   0  0  0  0  0  0  0  0  0  0  0  0
   13.0726   -4.6648   23.3394 O   0  0  0  0  0  0  0  0  0  0  0  0
    8.5955   -6.0705   17.3996 C   0  0  0  0  0  0  0  0  0  0  0  0
    4.6223   -8.3832   16.5030 C   0  0  0  0  0  0  0  0  0  0  0  0
   12.4690   -5.2624   19.9024 C   0  0  0  0  0  0  0  0  0  0  0  0
    3.2548   -9.9919   17.4189 C   0  0  0  0  0  0  0  0  0  0  0  0
   12.4767   -4.7393   22.1790 C   0  0  0  0  0  0  0  0  0  0  0  0
    7.8593   -5.3772   15.3569 N   0  0  0  0  0  0  0  0  0  0  0  0
    7.4412   -6.9038   16.9283 C   0  0  0  0  0  0  0  0  0  0  0  0
  1 21  4  0
  1 23  4  0
  2  5  1  0
  2 13  4  0
  2 16  4  0
  3  6  4  0
  3  7  4  0
  4 13  4  0
  4 19  4  0
  4 24  4  0
  6 23  4  0
  7 16  1  0
  7 21  4  0
  8 18  1  0
  9 20  4  0
  9 22  4  0
 10 17  1  0
 10 25  1  0
 11 16  4  0
 11 19  4  0
 12 15  4  0
 12 22  4  0
 14 24  4  0
 14 25  4  0
 15 17  4  0
 17 20  4  0
 18 23  1  0
 19 25  4  0
M  END
$$$$

 Created by Python create_sdf_string function

 25 28  0  0  0  0  0  0  0  0999 V2000
   13.1533   -5.2399   21.0682 C   0  0  0  0  0  0  0  0  0  0  0  0
   10.4729   -4.0295   17.6135 C   0  0  0  0  0  0  0  0  0  0  0  0
   10.4789   -4.3641   20.9564 C   0  0  0  0  0  0  0  0  0  0  0  0
    8.7421   -5.1412   16.3650 C   0  0  0  0  0  0  0  0  0  0  0  0
   11.4353   -2.9204   17.8044 C   0  0  0  0  0  0  0  0  0  0  0  0
   11.1529   -4.3028   22.1277 C   0  0  0  0  0  0  0  0  0  0  0  0
   11.1290   -4.8502   19.8052 C   0  0  0  0  0  0  0  0  0  0  0  0
   12.4329   -4.2159   24.4224 C   0  0  0  0  0  0  0  0  0  0  0  0
    3.4740   -9.0387   16.5022 C   0  0  0  0  0  0  0  0  0  0  0  0
    6.8384   -7.9290   17.5282 N   0  0  0  0  0  0  0  0  0  0  0  0
    9.4126   -5.9853   18.4899 C   0  0  0  0  0  0  0  0  0  0  0  0
    4.2064  -10.3242   18.3302 C   0  0  0  0  0  0  0  0  0  0  0  0
    9.6599   -4.1551   16.4796 N   0  0  0  0  0  0  0  0  0  0  0  0
    7.0644   -6.4612   15.7375 N   0  0  0  0  0  0  0  0  0  0  0  0
    5.3549   -9.6322   18.3190 C   0  0  0  0  0  0  0  0  0  0  0  0
   10.3704   -4.9638   18.6510 C   0  0  0  0  0  0  0  0  0  0  0  0
    5.5935   -8.6419   17.4234 C   0  0  0  0  0  0  0  0  0  0  0  0
   13.0726   -4.6648   23.3394 O   0  0  0  0  0  0  0  0  0  0  0  0
    8.5955   -6.0705   17.3996 C   0  0  0  0  0  0  0  0  0  0  0  0
    4.6223   -8.3832   16.5030 C   0  0  0  0  0  0  0  0  0  0  0  0
   12.4690   -5.2624   19.9024 C   0  0  0  0  0  0  0  0  0  0  0  0
    3.2548   -9.9919   17.4189 C   0  0  0  0  0  0  0  0  0  0  0  0
   12.4767   -4.7393   22.1790 C   0  0  0  0  0  0  0  0  0  0  0  0
    7.8593   -5.3772   15.3569 N   0  0  0  0  0  0  0  0  0  0  0  0
    7.4412   -6.9038   16.9283 C   0  0  0  0  0  0  0  0  0  0  0  0
  1 21  4  0
  1 23  4  0
  2  5  1  0
  2 13  4  0
  2 16  4  0
  3  6  4  0
  3  7  4  0
  4 13  4  0
  4 19  4  0
  4 24  4  0
  6 23  4  0
  7 16  1  0
  7 21  4  0
  8 18  1  0
  9 20  4  0
  9 22  4  0
 10 17  1  0
 10 25  1  0
 11 16  4  0
 11 19  4  0
 12 15  4  0
 12 22  4  0
 14 24  4  0
 14 25  4  0
 15 17  4  0
 17 20  4  0
 18 23  1  0
 19 25  4  0
M  END
$$$$

 Created by Python create_sdf_string function

 25 28  0  0  0  0  0  0  0  0999 V2000
   13.1533   -5.2399   21.0682 C   0  0  0  0  0  0  0  0  0  0  0  0
   10.4729   -4.0295   17.6135 C   0  0  0  0  0  0  0  0  0  0  0  0
   10.4789   -4.3641   20.9564 C   0  0  0  0  0  0  0  0  0  0  0  0
    8.7421   -5.1412   16.3650 C   0  0  0  0  0  0  0  0  0  0  0  0
   11.4353   -2.9204   17.8044 C   0  0  0  0  0  0  0  0  0  0  0  0
   11.1529   -4.3028   22.1277 C   0  0  0  0  0  0  0  0  0  0  0  0
   11.1290   -4.8502   19.8052 C   0  0  0  0  0  0  0  0  0  0  0  0
   12.4329   -4.2159   24.4224 C   0  0  0  0  0  0  0  0  0  0  0  0
    3.4740   -9.0387   16.5022 C   0  0  0  0  0  0  0  0  0  0  0  0
    6.8384   -7.9290   17.5282 N   0  0  0  0  0  0  0  0  0  0  0  0
    9.4126   -5.9853   18.4899 C   0  0  0  0  0  0  0  0  0  0  0  0
    4.2064  -10.3242   18.3302 C   0  0  0  0  0  0  0  0  0  0  0  0
    9.6599   -4.1551   16.4796 N   0  0  0  0  0  0  0  0  0  0  0  0
    7.0644   -6.4612   15.7375 N   0  0  0  0  0  0  0  0  0  0  0  0
    5.3549   -9.6322   18.3190 C   0  0  0  0  0  0  0  0  0  0  0  0
   10.3704   -4.9638   18.6510 C   0  0  0  0  0  0  0  0  0  0  0  0
    5.5935   -8.6419   17.4234 C   0  0  0  0  0  0  0  0  0  0  0  0
   13.0726   -4.6648   23.3394 O   0  0  0  0  0  0  0  0  0  0  0  0
    8.5955   -6.0705   17.3996 C   0  0  0  0  0  0  0  0  0  0  0  0
    4.6223   -8.3832   16.5030 C   0  0  0  0  0  0  0  0  0  0  0  0
   12.4690   -5.2624   19.9024 C   0  0  0  0  0  0  0  0  0  0  0  0
    3.2548   -9.9919   17.4189 C   0  0  0  0  0  0  0  0  0  0  0  0
   12.4767   -4.7393   22.1790 C   0  0  0  0  0  0  0  0  0  0  0  0
    7.8593   -5.3772   15.3569 N   0  0  0  0  0  0  0  0  0  0  0  0
    7.4412   -6.9038   16.9283 C   0  0  0  0  0  0  0  0  0  0  0  0
  1 21  4  0
  1 23  4  0
  2  5  1  0
  2 13  4  0
  2 16  4  0
  3  6  4  0
  3  7  4  0
  4 13  4  0
  4 19  4  0
  4 24  4  0
  6 23  4  0
  7 16  1  0
  7 21  4  0
  8 18  1  0
  9 20  4  0
  9 22  4  0
 10 17  1  0
 10 25  1  0
 11 16  4  0
 11 19  4  0
 12 15  4  0
 12 22  4  0
 14 24  4  0
 14 25  4  0
 15 17  4  0
 17 20  4  0
 18 23  1  0
 19 25  4  0
M  END
$$$$

 Created by Python create_sdf_string function

 25 28  0  0  0  0  0  0  0  0999 V2000
   13.1533   -5.2399   21.0682 C   0  0  0  0  0  0  0  0  0  0  0  0
   10.4729   -4.0295   17.6135 C   0  0  0  0  0  0  0  0  0  0  0  0
   10.4789   -4.3641   20.9564 C   0  0  0  0  0  0  0  0  0  0  0  0
    8.7421   -5.1412   16.3650 C   0  0  0  0  0  0  0  0  0  0  0  0
   11.4353   -2.9204   17.8044 C   0  0  0  0  0  0  0  0  0  0  0  0
   11.1529   -4.3028   22.1277 C   0  0  0  0  0  0  0  0  0  0  0  0
   11.1290   -4.8502   19.8052 C   0  0  0  0  0  0  0  0  0  0  0  0
   12.4329   -4.2159   24.4224 C   0  0  0  0  0  0  0  0  0  0  0  0
    3.4740   -9.0387   16.5022 C   0  0  0  0  0  0  0  0  0  0  0  0
    6.8384   -7.9290   17.5282 N   0  0  0  0  0  0  0  0  0  0  0  0
    9.4126   -5.9853   18.4899 C   0  0  0  0  0  0  0  0  0  0  0  0
    4.2064  -10.3242   18.3302 C   0  0  0  0  0  0  0  0  0  0  0  0
    9.6599   -4.1551   16.4796 N   0  0  0  0  0  0  0  0  0  0  0  0
    7.0644   -6.4612   15.7375 N   0  0  0  0  0  0  0  0  0  0  0  0
    5.3549   -9.6322   18.3190 C   0  0  0  0  0  0  0  0  0  0  0  0
   10.3704   -4.9638   18.6510 C   0  0  0  0  0  0  0  0  0  0  0  0
    5.5935   -8.6419   17.4234 C   0  0  0  0  0  0  0  0  0  0  0  0
   13.0726   -4.6648   23.3394 O   0  0  0  0  0  0  0  0  0  0  0  0
    8.5955   -6.0705   17.3996 C   0  0  0  0  0  0  0  0  0  0  0  0
    4.6223   -8.3832   16.5030 C   0  0  0  0  0  0  0  0  0  0  0  0
   12.4690   -5.2624   19.9024 C   0  0  0  0  0  0  0  0  0  0  0  0
    3.2548   -9.9919   17.4189 C   0  0  0  0  0  0  0  0  0  0  0  0
   12.4767   -4.7393   22.1790 C   0  0  0  0  0  0  0  0  0  0  0  0
    7.8593   -5.3772   15.3569 N   0  0  0  0  0  0  0  0  0  0  0  0
    7.4412   -6.9038   16.9283 C   0  0  0  0  0  0  0  0  0  0  0  0
  1 21  4  0
  1 23  4  0
  2  5  1  0
  2 13  4  0
  2 16  4  0
  3  6  4  0
  3  7  4  0
  4 13  4  0
  4 19  4  0
  4 24  4  0
  6 23  4  0
  7 16  1  0
  7 21  4  0
  8 18  1  0
  9 20  4  0
  9 22  4  0
 10 17  1  0
 10 25  1  0
 11 16  4  0
 11 19  4  0
 12 15  4  0
 12 22  4  0
 14 24  4  0
 14 25  4  0
 15 17  4  0
 17 20  4  0
 18 23  1  0
 19 25  4  0
M  END
$$$$

 Created by Python create_sdf_string function

 25 28  0  0  0  0  0  0  0  0999 V2000
   13.1533   -5.2399   21.0682 C   0  0  0  0  0  0  0  0  0  0  0  0
   10.4729   -4.0295   17.6135 C   0  0  0  0  0  0  0  0  0  0  0  0
   10.4789   -4.3641   20.9564 C   0  0  0  0  0  0  0  0  0  0  0  0
    8.7421   -5.1412   16.3650 C   0  0  0  0  0  0  0  0  0  0  0  0
   11.4353   -2.9204   17.8044 C   0  0  0  0  0  0  0  0  0  0  0  0
   11.1529   -4.3028   22.1277 C   0  0  0  0  0  0  0  0  0  0  0  0
   11.1290   -4.8502   19.8052 C   0  0  0  0  0  0  0  0  0  0  0  0
   12.4329   -4.2159   24.4224 C   0  0  0  0  0  0  0  0  0  0  0  0
    3.4740   -9.0387   16.5022 C   0  0  0  0  0  0  0  0  0  0  0  0
    6.8384   -7.9290   17.5282 N   0  0  0  0  0  0  0  0  0  0  0  0
    9.4126   -5.9853   18.4899 C   0  0  0  0  0  0  0  0  0  0  0  0
    4.2064  -10.3242   18.3302 C   0  0  0  0  0  0  0  0  0  0  0  0
    9.6599   -4.1551   16.4796 N   0  0  0  0  0  0  0  0  0  0  0  0
    7.0644   -6.4612   15.7375 N   0  0  0  0  0  0  0  0  0  0  0  0
    5.3549   -9.6322   18.3190 C   0  0  0  0  0  0  0  0  0  0  0  0
   10.3704   -4.9638   18.6510 C   0  0  0  0  0  0  0  0  0  0  0  0
    5.5935   -8.6419   17.4234 C   0  0  0  0  0  0  0  0  0  0  0  0
   13.0726   -4.6648   23.3394 O   0  0  0  0  0  0  0  0  0  0  0  0
    8.5955   -6.0705   17.3996 C   0  0  0  0  0  0  0  0  0  0  0  0
    4.6223   -8.3832   16.5030 C   0  0  0  0  0  0  0  0  0  0  0  0
   12.4690   -5.2624   19.9024 C   0  0  0  0  0  0  0  0  0  0  0  0
    3.2548   -9.9919   17.4189 C   0  0  0  0  0  0  0  0  0  0  0  0
   12.4767   -4.7393   22.1790 C   0  0  0  0  0  0  0  0  0  0  0  0
    7.8593   -5.3772   15.3569 N   0  0  0  0  0  0  0  0  0  0  0  0
    7.4412   -6.9038   16.9283 C   0  0  0  0  0  0  0  0  0  0  0  0
  1 21  4  0
  1 23  4  0
  2  5  1  0
  2 13  4  0
  2 16  4  0
  3  6  4  0
  3  7  4  0
  4 13  4  0
  4 19  4  0
  4 24  4  0
  6 23  4  0
  7 16  1  0
  7 21  4  0
  8 18  1  0
  9 20  4  0
  9 22  4  0
 10 17  1  0
 10 25  1  0
 11 16  4  0
 11 19  4  0
 12 15  4  0
 12 22  4  0
 14 24  4  0
 14 25  4  0
 15 17  4  0
 17 20  4  0
 18 23  1  0
 19 25  4  0
M  END
$$$$

 Created by Python create_sdf_string function

 25 28  0  0  0  0  0  0  0  0999 V2000
   13.1533   -5.2399   21.0682 C   0  0  0  0  0  0  0  0  0  0  0  0
   10.4729   -4.0295   17.6135 C   0  0  0  0  0  0  0  0  0  0  0  0
   10.4789   -4.3641   20.9564 C   0  0  0  0  0  0  0  0  0  0  0  0
    8.7421   -5.1412   16.3650 C   0  0  0  0  0  0  0  0  0  0  0  0
   11.4353   -2.9204   17.8044 C   0  0  0  0  0  0  0  0  0  0  0  0
   11.1529   -4.3028   22.1277 C   0  0  0  0  0  0  0  0  0  0  0  0
   11.1290   -4.8502   19.8052 C   0  0  0  0  0  0  0  0  0  0  0  0
   12.4329   -4.2159   24.4224 C   0  0  0  0  0  0  0  0  0  0  0  0
    3.4740   -9.0387   16.5022 C   0  0  0  0  0  0  0  0  0  0  0  0
    6.8384   -7.9290   17.5282 N   0  0  0  0  0  0  0  0  0  0  0  0
    9.4126   -5.9853   18.4899 C   0  0  0  0  0  0  0  0  0  0  0  0
    4.2064  -10.3242   18.3302 C   0  0  0  0  0  0  0  0  0  0  0  0
    9.6599   -4.1551   16.4796 N   0  0  0  0  0  0  0  0  0  0  0  0
    7.0644   -6.4612   15.7375 N   0  0  0  0  0  0  0  0  0  0  0  0
    5.3549   -9.6322   18.3190 C   0  0  0  0  0  0  0  0  0  0  0  0
   10.3704   -4.9638   18.6510 C   0  0  0  0  0  0  0  0  0  0  0  0
    5.5935   -8.6419   17.4234 C   0  0  0  0  0  0  0  0  0  0  0  0
   13.0726   -4.6648   23.3394 O   0  0  0  0  0  0  0  0  0  0  0  0
    8.5955   -6.0705   17.3996 C   0  0  0  0  0  0  0  0  0  0  0  0
    4.6223   -8.3832   16.5030 C   0  0  0  0  0  0  0  0  0  0  0  0
   12.4690   -5.2624   19.9024 C   0  0  0  0  0  0  0  0  0  0  0  0
    3.2548   -9.9919   17.4189 C   0  0  0  0  0  0  0  0  0  0  0  0
   12.4767   -4.7393   22.1790 C   0  0  0  0  0  0  0  0  0  0  0  0
    7.8593   -5.3772   15.3569 N   0  0  0  0  0  0  0  0  0  0  0  0
    7.4412   -6.9038   16.9283 C   0  0  0  0  0  0  0  0  0  0  0  0
  1 21  4  0
  1 23  4  0
  2  5  1  0
  2 13  4  0
  2 16  4  0
  3  6  4  0
  3  7  4  0
  4 13  4  0
  4 19  4  0
  4 24  4  0
  6 23  4  0
  7 16  1  0
  7 21  4  0
  8 18  1  0
  9 20  4  0
  9 22  4  0
 10 17  1  0
 10 25  1  0
 11 16  4  0
 11 19  4  0
 12 15  4  0
 12 22  4  0
 14 24  4  0
 14 25  4  0
 15 17  4  0
 17 20  4  0
 18 23  1  0
 19 25  4  0
M  END
$$$$

 Created by Python create_sdf_string function

 25 28  0  0  0  0  0  0  0  0999 V2000
   13.1533   -5.2399   21.0682 C   0  0  0  0  0  0  0  0  0  0  0  0
   10.4729   -4.0295   17.6135 C   0  0  0  0  0  0  0  0  0  0  0  0
   10.4789   -4.3641   20.9564 C   0  0  0  0  0  0  0  0  0  0  0  0
    8.7421   -5.1412   16.3650 C   0  0  0  0  0  0  0  0  0  0  0  0
   11.4353   -2.9204   17.8044 C   0  0  0  0  0  0  0  0  0  0  0  0
   11.1529   -4.3028   22.1277 C   0  0  0  0  0  0  0  0  0  0  0  0
   11.1290   -4.8502   19.8052 C   0  0  0  0  0  0  0  0  0  0  0  0
   12.4329   -4.2159   24.4224 C   0  0  0  0  0  0  0  0  0  0  0  0
    3.4740   -9.0387   16.5022 C   0  0  0  0  0  0  0  0  0  0  0  0
    6.8384   -7.9290   17.5282 N   0  0  0  0  0  0  0  0  0  0  0  0
    9.4126   -5.9853   18.4899 C   0  0  0  0  0  0  0  0  0  0  0  0
    4.2064  -10.3242   18.3302 C   0  0  0  0  0  0  0  0  0  0  0  0
    9.6599   -4.1551   16.4796 N   0  0  0  0  0  0  0  0  0  0  0  0
    7.0644   -6.4612   15.7375 N   0  0  0  0  0  0  0  0  0  0  0  0
    5.3549   -9.6322   18.3190 C   0  0  0  0  0  0  0  0  0  0  0  0
   10.3704   -4.9638   18.6510 C   0  0  0  0  0  0  0  0  0  0  0  0
    5.5935   -8.6419   17.4234 C   0  0  0  0  0  0  0  0  0  0  0  0
   13.0726   -4.6648   23.3394 O   0  0  0  0  0  0  0  0  0  0  0  0
    8.5955   -6.0705   17.3996 C   0  0  0  0  0  0  0  0  0  0  0  0
    4.6223   -8.3832   16.5030 C   0  0  0  0  0  0  0  0  0  0  0  0
   12.4690   -5.2624   19.9024 C   0  0  0  0  0  0  0  0  0  0  0  0
    3.2548   -9.9919   17.4189 C   0  0  0  0  0  0  0  0  0  0  0  0
   12.4767   -4.7393   22.1790 C   0  0  0  0  0  0  0  0  0  0  0  0
    7.8593   -5.3772   15.3569 N   0  0  0  0  0  0  0  0  0  0  0  0
    7.4412   -6.9038   16.9283 C   0  0  0  0  0  0  0  0  0  0  0  0
  1 21  4  0
  1 23  4  0
  2  5  1  0
  2 13  4  0
  2 16  4  0
  3  6  4  0
  3  7  4  0
  4 13  4  0
  4 19  4  0
  4 24  4  0
  6 23  4  0
  7 16  1  0
  7 21  4  0
  8 18  1  0
  9 20  4  0
  9 22  4  0
 10 17  1  0
 10 25  1  0
 11 16  4  0
 11 19  4  0
 12 15  4  0
 12 22  4  0
 14 24  4  0
 14 25  4  0
 15 17  4  0
 17 20  4  0
 18 23  1  0
 19 25  4  0
M  END
$$$$

 Created by Python create_sdf_string function

 25 28  0  0  0  0  0  0  0  0999 V2000
   13.1533   -5.2399   21.0682 C   0  0  0  0  0  0  0  0  0  0  0  0
   10.4729   -4.0295   17.6135 C   0  0  0  0  0  0  0  0  0  0  0  0
   10.4789   -4.3641   20.9564 C   0  0  0  0  0  0  0  0  0  0  0  0
    8.7421   -5.1412   16.3650 C   0  0  0  0  0  0  0  0  0  0  0  0
   11.4353   -2.9204   17.8044 C   0  0  0  0  0  0  0  0  0  0  0  0
   11.1529   -4.3028   22.1277 C   0  0  0  0  0  0  0  0  0  0  0  0
   11.1290   -4.8502   19.8052 C   0  0  0  0  0  0  0  0  0  0  0  0
   12.4329   -4.2159   24.4224 C   0  0  0  0  0  0  0  0  0  0  0  0
    3.4740   -9.0387   16.5022 C   0  0  0  0  0  0  0  0  0  0  0  0
    6.8384   -7.9290   17.5282 N   0  0  0  0  0  0  0  0  0  0  0  0
    9.4126   -5.9853   18.4899 C   0  0  0  0  0  0  0  0  0  0  0  0
    4.2064  -10.3242   18.3302 C   0  0  0  0  0  0  0  0  0  0  0  0
    9.6599   -4.1551   16.4796 N   0  0  0  0  0  0  0  0  0  0  0  0
    7.0644   -6.4612   15.7375 N   0  0  0  0  0  0  0  0  0  0  0  0
    5.3549   -9.6322   18.3190 C   0  0  0  0  0  0  0  0  0  0  0  0
   10.3704   -4.9638   18.6510 C   0  0  0  0  0  0  0  0  0  0  0  0
    5.5935   -8.6419   17.4234 C   0  0  0  0  0  0  0  0  0  0  0  0
   13.0726   -4.6648   23.3394 O   0  0  0  0  0  0  0  0  0  0  0  0
    8.5955   -6.0705   17.3996 C   0  0  0  0  0  0  0  0  0  0  0  0
    4.6223   -8.3832   16.5030 C   0  0  0  0  0  0  0  0  0  0  0  0
   12.4690   -5.2624   19.9024 C   0  0  0  0  0  0  0  0  0  0  0  0
    3.2548   -9.9919   17.4189 C   0  0  0  0  0  0  0  0  0  0  0  0
   12.4767   -4.7393   22.1790 C   0  0  0  0  0  0  0  0  0  0  0  0
    7.8593   -5.3772   15.3569 N   0  0  0  0  0  0  0  0  0  0  0  0
    7.4412   -6.9038   16.9283 C   0  0  0  0  0  0  0  0  0  0  0  0
  1 21  4  0
  1 23  4  0
  2  5  1  0
  2 13  4  0
  2 16  4  0
  3  6  4  0
  3  7  4  0
  4 13  4  0
  4 19  4  0
  4 24  4  0
  6 23  4  0
  7 16  1  0
  7 21  4  0
  8 18  1  0
  9 20  4  0
  9 22  4  0
 10 17  1  0
 10 25  1  0
 11 16  4  0
 11 19  4  0
 12 15  4  0
 12 22  4  0
 14 24  4  0
 14 25  4  0
 15 17  4  0
 17 20  4  0
 18 23  1  0
 19 25  4  0
M  END
$$$$

 Created by Python create_sdf_string function

 25 28  0  0  0  0  0  0  0  0999 V2000
   13.1533   -5.2399   21.0682 C   0  0  0  0  0  0  0  0  0  0  0  0
   10.4729   -4.0295   17.6135 C   0  0  0  0  0  0  0  0  0  0  0  0
   10.4789   -4.3641   20.9564 C   0  0  0  0  0  0  0  0  0  0  0  0
    8.7421   -5.1412   16.3650 C   0  0  0  0  0  0  0  0  0  0  0  0
   11.4353   -2.9204   17.8044 C   0  0  0  0  0  0  0  0  0  0  0  0
   11.1529   -4.3028   22.1277 C   0  0  0  0  0  0  0  0  0  0  0  0
   11.1290   -4.8502   19.8052 C   0  0  0  0  0  0  0  0  0  0  0  0
   12.4329   -4.2159   24.4224 C   0  0  0  0  0  0  0  0  0  0  0  0
    3.4740   -9.0387   16.5022 C   0  0  0  0  0  0  0  0  0  0  0  0
    6.8384   -7.9290   17.5282 N   0  0  0  0  0  0  0  0  0  0  0  0
    9.4126   -5.9853   18.4899 C   0  0  0  0  0  0  0  0  0  0  0  0
    4.2064  -10.3242   18.3302 C   0  0  0  0  0  0  0  0  0  0  0  0
    9.6599   -4.1551   16.4796 N   0  0  0  0  0  0  0  0  0  0  0  0
    7.0644   -6.4612   15.7375 N   0  0  0  0  0  0  0  0  0  0  0  0
    5.3549   -9.6322   18.3190 C   0  0  0  0  0  0  0  0  0  0  0  0
   10.3704   -4.9638   18.6510 C   0  0  0  0  0  0  0  0  0  0  0  0
    5.5935   -8.6419   17.4234 C   0  0  0  0  0  0  0  0  0  0  0  0
   13.0726   -4.6648   23.3394 O   0  0  0  0  0  0  0  0  0  0  0  0
    8.5955   -6.0705   17.3996 C   0  0  0  0  0  0  0  0  0  0  0  0
    4.6223   -8.3832   16.5030 C   0  0  0  0  0  0  0  0  0  0  0  0
   12.4690   -5.2624   19.9024 C   0  0  0  0  0  0  0  0  0  0  0  0
    3.2548   -9.9919   17.4189 C   0  0  0  0  0  0  0  0  0  0  0  0
   12.4767   -4.7393   22.1790 C   0  0  0  0  0  0  0  0  0  0  0  0
    7.8593   -5.3772   15.3569 N   0  0  0  0  0  0  0  0  0  0  0  0
    7.4412   -6.9038   16.9283 C   0  0  0  0  0  0  0  0  0  0  0  0
  1 21  4  0
  1 23  4  0
  2  5  1  0
  2 13  4  0
  2 16  4  0
  3  6  4  0
  3  7  4  0
  4 13  4  0
  4 19  4  0
  4 24  4  0
  6 23  4  0
  7 16  1  0
  7 21  4  0
  8 18  1  0
  9 20  4  0
  9 22  4  0
 10 17  1  0
 10 25  1  0
 11 16  4  0
 11 19  4  0
 12 15  4  0
 12 22  4  0
 14 24  4  0
 14 25  4  0
 15 17  4  0
 17 20  4  0
 18 23  1  0
 19 25  4  0
M  END
$$$$

 Created by Python create_sdf_string function

 25 28  0  0  0  0  0  0  0  0999 V2000
   13.1533   -5.2399   21.0682 C   0  0  0  0  0  0  0  0  0  0  0  0
   10.4729   -4.0295   17.6135 C   0  0  0  0  0  0  0  0  0  0  0  0
   10.4789   -4.3641   20.9564 C   0  0  0  0  0  0  0  0  0  0  0  0
    8.7421   -5.1412   16.3650 C   0  0  0  0  0  0  0  0  0  0  0  0
   11.4353   -2.9204   17.8044 C   0  0  0  0  0  0  0  0  0  0  0  0
   11.1529   -4.3028   22.1277 C   0  0  0  0  0  0  0  0  0  0  0  0
   11.1290   -4.8502   19.8052 C   0  0  0  0  0  0  0  0  0  0  0  0
   12.4329   -4.2159   24.4224 C   0  0  0  0  0  0  0  0  0  0  0  0
    3.4740   -9.0387   16.5022 C   0  0  0  0  0  0  0  0  0  0  0  0
    6.8384   -7.9290   17.5282 N   0  0  0  0  0  0  0  0  0  0  0  0
    9.4126   -5.9853   18.4899 C   0  0  0  0  0  0  0  0  0  0  0  0
    4.2064  -10.3242   18.3302 C   0  0  0  0  0  0  0  0  0  0  0  0
    9.6599   -4.1551   16.4796 N   0  0  0  0  0  0  0  0  0  0  0  0
    7.0644   -6.4612   15.7375 N   0  0  0  0  0  0  0  0  0  0  0  0
    5.3549   -9.6322   18.3190 C   0  0  0  0  0  0  0  0  0  0  0  0
   10.3704   -4.9638   18.6510 C   0  0  0  0  0  0  0  0  0  0  0  0
    5.5935   -8.6419   17.4234 C   0  0  0  0  0  0  0  0  0  0  0  0
   13.0726   -4.6648   23.3394 O   0  0  0  0  0  0  0  0  0  0  0  0
    8.5955   -6.0705   17.3996 C   0  0  0  0  0  0  0  0  0  0  0  0
    4.6223   -8.3832   16.5030 C   0  0  0  0  0  0  0  0  0  0  0  0
   12.4690   -5.2624   19.9024 C   0  0  0  0  0  0  0  0  0  0  0  0
    3.2548   -9.9919   17.4189 C   0  0  0  0  0  0  0  0  0  0  0  0
   12.4767   -4.7393   22.1790 C   0  0  0  0  0  0  0  0  0  0  0  0
    7.8593   -5.3772   15.3569 N   0  0  0  0  0  0  0  0  0  0  0  0
    7.4412   -6.9038   16.9283 C   0  0  0  0  0  0  0  0  0  0  0  0
  1 21  4  0
  1 23  4  0
  2  5  1  0
  2 13  4  0
  2 16  4  0
  3  6  4  0
  3  7  4  0
  4 13  4  0
  4 19  4  0
  4 24  4  0
  6 23  4  0
  7 16  1  0
  7 21  4  0
  8 18  1  0
  9 20  4  0
  9 22  4  0
 10 17  1  0
 10 25  1  0
 11 16  4  0
 11 19  4  0
 12 15  4  0
 12 22  4  0
 14 24  4  0
 14 25  4  0
 15 17  4  0
 17 20  4  0
 18 23  1  0
 19 25  4  0
M  END
$$$$

 Created by Python create_sdf_string function

 25 28  0  0  0  0  0  0  0  0999 V2000
   13.1533   -5.2399   21.0682 C   0  0  0  0  0  0  0  0  0  0  0  0
   10.4729   -4.0295   17.6135 C   0  0  0  0  0  0  0  0  0  0  0  0
   10.4789   -4.3641   20.9564 C   0  0  0  0  0  0  0  0  0  0  0  0
    8.7421   -5.1412   16.3650 C   0  0  0  0  0  0  0  0  0  0  0  0
   11.4353   -2.9204   17.8044 C   0  0  0  0  0  0  0  0  0  0  0  0
   11.1529   -4.3028   22.1277 C   0  0  0  0  0  0  0  0  0  0  0  0
   11.1290   -4.8502   19.8052 C   0  0  0  0  0  0  0  0  0  0  0  0
   12.4329   -4.2159   24.4224 C   0  0  0  0  0  0  0  0  0  0  0  0
    3.4740   -9.0387   16.5022 C   0  0  0  0  0  0  0  0  0  0  0  0
    6.8384   -7.9290   17.5282 N   0  0  0  0  0  0  0  0  0  0  0  0
    9.4126   -5.9853   18.4899 C   0  0  0  0  0  0  0  0  0  0  0  0
    4.2064  -10.3242   18.3302 C   0  0  0  0  0  0  0  0  0  0  0  0
    9.6599   -4.1551   16.4796 N   0  0  0  0  0  0  0  0  0  0  0  0
    7.0644   -6.4612   15.7375 N   0  0  0  0  0  0  0  0  0  0  0  0
    5.3549   -9.6322   18.3190 C   0  0  0  0  0  0  0  0  0  0  0  0
   10.3704   -4.9638   18.6510 C   0  0  0  0  0  0  0  0  0  0  0  0
    5.5935   -8.6419   17.4234 C   0  0  0  0  0  0  0  0  0  0  0  0
   13.0726   -4.6648   23.3394 O   0  0  0  0  0  0  0  0  0  0  0  0
    8.5955   -6.0705   17.3996 C   0  0  0  0  0  0  0  0  0  0  0  0
    4.6223   -8.3832   16.5030 C   0  0  0  0  0  0  0  0  0  0  0  0
   12.4690   -5.2624   19.9024 C   0  0  0  0  0  0  0  0  0  0  0  0
    3.2548   -9.9919   17.4189 C   0  0  0  0  0  0  0  0  0  0  0  0
   12.4767   -4.7393   22.1790 C   0  0  0  0  0  0  0  0  0  0  0  0
    7.8593   -5.3772   15.3569 N   0  0  0  0  0  0  0  0  0  0  0  0
    7.4412   -6.9038   16.9283 C   0  0  0  0  0  0  0  0  0  0  0  0
  1 21  4  0
  1 23  4  0
  2  5  1  0
  2 13  4  0
  2 16  4  0
  3  6  4  0
  3  7  4  0
  4 13  4  0
  4 19  4  0
  4 24  4  0
  6 23  4  0
  7 16  1  0
  7 21  4  0
  8 18  1  0
  9 20  4  0
  9 22  4  0
 10 17  1  0
 10 25  1  0
 11 16  4  0
 11 19  4  0
 12 15  4  0
 12 22  4  0
 14 24  4  0
 14 25  4  0
 15 17  4  0
 17 20  4  0
 18 23  1  0
 19 25  4  0
M  END
$$$$

 Created by Python create_sdf_string function

 25 28  0  0  0  0  0  0  0  0999 V2000
   13.1533   -5.2399   21.0682 C   0  0  0  0  0  0  0  0  0  0  0  0
   10.4729   -4.0295   17.6135 C   0  0  0  0  0  0  0  0  0  0  0  0
   10.4789   -4.3641   20.9564 C   0  0  0  0  0  0  0  0  0  0  0  0
    8.7421   -5.1412   16.3650 C   0  0  0  0  0  0  0  0  0  0  0  0
   11.4353   -2.9204   17.8044 C   0  0  0  0  0  0  0  0  0  0  0  0
   11.1529   -4.3028   22.1277 C   0  0  0  0  0  0  0  0  0  0  0  0
   11.1290   -4.8502   19.8052 C   0  0  0  0  0  0  0  0  0  0  0  0
   12.4329   -4.2159   24.4224 C   0  0  0  0  0  0  0  0  0  0  0  0
    3.4740   -9.0387   16.5022 C   0  0  0  0  0  0  0  0  0  0  0  0
    6.8384   -7.9290   17.5282 N   0  0  0  0  0  0  0  0  0  0  0  0
    9.4126   -5.9853   18.4899 C   0  0  0  0  0  0  0  0  0  0  0  0
    4.2064  -10.3242   18.3302 C   0  0  0  0  0  0  0  0  0  0  0  0
    9.6599   -4.1551   16.4796 N   0  0  0  0  0  0  0  0  0  0  0  0
    7.0644   -6.4612   15.7375 N   0  0  0  0  0  0  0  0  0  0  0  0
    5.3549   -9.6322   18.3190 C   0  0  0  0  0  0  0  0  0  0  0  0
   10.3704   -4.9638   18.6510 C   0  0  0  0  0  0  0  0  0  0  0  0
    5.5935   -8.6419   17.4234 C   0  0  0  0  0  0  0  0  0  0  0  0
   13.0726   -4.6648   23.3394 O   0  0  0  0  0  0  0  0  0  0  0  0
    8.5955   -6.0705   17.3996 C   0  0  0  0  0  0  0  0  0  0  0  0
    4.6223   -8.3832   16.5030 C   0  0  0  0  0  0  0  0  0  0  0  0
   12.4690   -5.2624   19.9024 C   0  0  0  0  0  0  0  0  0  0  0  0
    3.2548   -9.9919   17.4189 C   0  0  0  0  0  0  0  0  0  0  0  0
   12.4767   -4.7393   22.1790 C   0  0  0  0  0  0  0  0  0  0  0  0
    7.8593   -5.3772   15.3569 N   0  0  0  0  0  0  0  0  0  0  0  0
    7.4412   -6.9038   16.9283 C   0  0  0  0  0  0  0  0  0  0  0  0
  1 21  4  0
  1 23  4  0
  2  5  1  0
  2 13  4  0
  2 16  4  0
  3  6  4  0
  3  7  4  0
  4 13  4  0
  4 19  4  0
  4 24  4  0
  6 23  4  0
  7 16  1  0
  7 21  4  0
  8 18  1  0
  9 20  4  0
  9 22  4  0
 10 17  1  0
 10 25  1  0
 11 16  4  0
 11 19  4  0
 12 15  4  0
 12 22  4  0
 14 24  4  0
 14 25  4  0
 15 17  4  0
 17 20  4  0
 18 23  1  0
 19 25  4  0
M  END
$$$$

 Created by Python create_sdf_string function

 25 28  0  0  0  0  0  0  0  0999 V2000
   13.1533   -5.2399   21.0682 C   0  0  0  0  0  0  0  0  0  0  0  0
   10.4729   -4.0295   17.6135 C   0  0  0  0  0  0  0  0  0  0  0  0
   10.4789   -4.3641   20.9564 C   0  0  0  0  0  0  0  0  0  0  0  0
    8.7421   -5.1412   16.3650 C   0  0  0  0  0  0  0  0  0  0  0  0
   11.4353   -2.9204   17.8044 C   0  0  0  0  0  0  0  0  0  0  0  0
   11.1529   -4.3028   22.1277 C   0  0  0  0  0  0  0  0  0  0  0  0
   11.1290   -4.8502   19.8052 C   0  0  0  0  0  0  0  0  0  0  0  0
   12.4329   -4.2159   24.4224 C   0  0  0  0  0  0  0  0  0  0  0  0
    3.4740   -9.0387   16.5022 C   0  0  0  0  0  0  0  0  0  0  0  0
    6.8384   -7.9290   17.5282 N   0  0  0  0  0  0  0  0  0  0  0  0
    9.4126   -5.9853   18.4899 C   0  0  0  0  0  0  0  0  0  0  0  0
    4.2064  -10.3242   18.3302 C   0  0  0  0  0  0  0  0  0  0  0  0
    9.6599   -4.1551   16.4796 N   0  0  0  0  0  0  0  0  0  0  0  0
    7.0644   -6.4612   15.7375 N   0  0  0  0  0  0  0  0  0  0  0  0
    5.3549   -9.6322   18.3190 C   0  0  0  0  0  0  0  0  0  0  0  0
   10.3704   -4.9638   18.6510 C   0  0  0  0  0  0  0  0  0  0  0  0
    5.5935   -8.6419   17.4234 C   0  0  0  0  0  0  0  0  0  0  0  0
   13.0726   -4.6648   23.3394 O   0  0  0  0  0  0  0  0  0  0  0  0
    8.5955   -6.0705   17.3996 C   0  0  0  0  0  0  0  0  0  0  0  0
    4.6223   -8.3832   16.5030 C   0  0  0  0  0  0  0  0  0  0  0  0
   12.4690   -5.2624   19.9024 C   0  0  0  0  0  0  0  0  0  0  0  0
    3.2548   -9.9919   17.4189 C   0  0  0  0  0  0  0  0  0  0  0  0
   12.4767   -4.7393   22.1790 C   0  0  0  0  0  0  0  0  0  0  0  0
    7.8593   -5.3772   15.3569 N   0  0  0  0  0  0  0  0  0  0  0  0
    7.4412   -6.9038   16.9283 C   0  0  0  0  0  0  0  0  0  0  0  0
  1 21  4  0
  1 23  4  0
  2  5  1  0
  2 13  4  0
  2 16  4  0
  3  6  4  0
  3  7  4  0
  4 13  4  0
  4 19  4  0
  4 24  4  0
  6 23  4  0
  7 16  1  0
  7 21  4  0
  8 18  1  0
  9 20  4  0
  9 22  4  0
 10 17  1  0
 10 25  1  0
 11 16  4  0
 11 19  4  0
 12 15  4  0
 12 22  4  0
 14 24  4  0
 14 25  4  0
 15 17  4  0
 17 20  4  0
 18 23  1  0
 19 25  4  0
M  END
$$$$

 Created by Python create_sdf_string function

 25 28  0  0  0  0  0  0  0  0999 V2000
   13.1533   -5.2399   21.0682 C   0  0  0  0  0  0  0  0  0  0  0  0
   10.4729   -4.0295   17.6135 C   0  0  0  0  0  0  0  0  0  0  0  0
   10.4789   -4.3641   20.9564 C   0  0  0  0  0  0  0  0  0  0  0  0
    8.7421   -5.1412   16.3650 C   0  0  0  0  0  0  0  0  0  0  0  0
   11.4353   -2.9204   17.8044 C   0  0  0  0  0  0  0  0  0  0  0  0
   11.1529   -4.3028   22.1277 C   0  0  0  0  0  0  0  0  0  0  0  0
   11.1290   -4.8502   19.8052 C   0  0  0  0  0  0  0  0  0  0  0  0
   12.4329   -4.2159   24.4224 C   0  0  0  0  0  0  0  0  0  0  0  0
    3.4740   -9.0387   16.5022 C   0  0  0  0  0  0  0  0  0  0  0  0
    6.8384   -7.9290   17.5282 N   0  0  0  0  0  0  0  0  0  0  0  0
    9.4126   -5.9853   18.4899 C   0  0  0  0  0  0  0  0  0  0  0  0
    4.2064  -10.3242   18.3302 C   0  0  0  0  0  0  0  0  0  0  0  0
    9.6599   -4.1551   16.4796 N   0  0  0  0  0  0  0  0  0  0  0  0
    7.0644   -6.4612   15.7375 N   0  0  0  0  0  0  0  0  0  0  0  0
    5.3549   -9.6322   18.3190 C   0  0  0  0  0  0  0  0  0  0  0  0
   10.3704   -4.9638   18.6510 C   0  0  0  0  0  0  0  0  0  0  0  0
    5.5935   -8.6419   17.4234 C   0  0  0  0  0  0  0  0  0  0  0  0
   13.0726   -4.6648   23.3394 O   0  0  0  0  0  0  0  0  0  0  0  0
    8.5955   -6.0705   17.3996 C   0  0  0  0  0  0  0  0  0  0  0  0
    4.6223   -8.3832   16.5030 C   0  0  0  0  0  0  0  0  0  0  0  0
   12.4690   -5.2624   19.9024 C   0  0  0  0  0  0  0  0  0  0  0  0
    3.2548   -9.9919   17.4189 C   0  0  0  0  0  0  0  0  0  0  0  0
   12.4767   -4.7393   22.1790 C   0  0  0  0  0  0  0  0  0  0  0  0
    7.8593   -5.3772   15.3569 N   0  0  0  0  0  0  0  0  0  0  0  0
    7.4412   -6.9038   16.9283 C   0  0  0  0  0  0  0  0  0  0  0  0
  1 21  4  0
  1 23  4  0
  2  5  1  0
  2 13  4  0
  2 16  4  0
  3  6  4  0
  3  7  4  0
  4 13  4  0
  4 19  4  0
  4 24  4  0
  6 23  4  0
  7 16  1  0
  7 21  4  0
  8 18  1  0
  9 20  4  0
  9 22  4  0
 10 17  1  0
 10 25  1  0
 11 16  4  0
 11 19  4  0
 12 15  4  0
 12 22  4  0
 14 24  4  0
 14 25  4  0
 15 17  4  0
 17 20  4  0
 18 23  1  0
 19 25  4  0
M  END
$$$$

 Created by Python create_sdf_string function

 25 28  0  0  0  0  0  0  0  0999 V2000
   13.1533   -5.2399   21.0682 C   0  0  0  0  0  0  0  0  0  0  0  0
   10.4729   -4.0295   17.6135 C   0  0  0  0  0  0  0  0  0  0  0  0
   10.4789   -4.3641   20.9564 C   0  0  0  0  0  0  0  0  0  0  0  0
    8.7421   -5.1412   16.3650 C   0  0  0  0  0  0  0  0  0  0  0  0
   11.4353   -2.9204   17.8044 C   0  0  0  0  0  0  0  0  0  0  0  0
   11.1529   -4.3028   22.1277 C   0  0  0  0  0  0  0  0  0  0  0  0
   11.1290   -4.8502   19.8052 C   0  0  0  0  0  0  0  0  0  0  0  0
   12.4329   -4.2159   24.4224 C   0  0  0  0  0  0  0  0  0  0  0  0
    3.4740   -9.0387   16.5022 C   0  0  0  0  0  0  0  0  0  0  0  0
    6.8384   -7.9290   17.5282 N   0  0  0  0  0  0  0  0  0  0  0  0
    9.4126   -5.9853   18.4899 C   0  0  0  0  0  0  0  0  0  0  0  0
    4.2064  -10.3242   18.3302 C   0  0  0  0  0  0  0  0  0  0  0  0
    9.6599   -4.1551   16.4796 N   0  0  0  0  0  0  0  0  0  0  0  0
    7.0644   -6.4612   15.7375 N   0  0  0  0  0  0  0  0  0  0  0  0
    5.3549   -9.6322   18.3190 C   0  0  0  0  0  0  0  0  0  0  0  0
   10.3704   -4.9638   18.6510 C   0  0  0  0  0  0  0  0  0  0  0  0
    5.5935   -8.6419   17.4234 C   0  0  0  0  0  0  0  0  0  0  0  0
   13.0726   -4.6648   23.3394 O   0  0  0  0  0  0  0  0  0  0  0  0
    8.5955   -6.0705   17.3996 C   0  0  0  0  0  0  0  0  0  0  0  0
    4.6223   -8.3832   16.5030 C   0  0  0  0  0  0  0  0  0  0  0  0
   12.4690   -5.2624   19.9024 C   0  0  0  0  0  0  0  0  0  0  0  0
    3.2548   -9.9919   17.4189 C   0  0  0  0  0  0  0  0  0  0  0  0
   12.4767   -4.7393   22.1790 C   0  0  0  0  0  0  0  0  0  0  0  0
    7.8593   -5.3772   15.3569 N   0  0  0  0  0  0  0  0  0  0  0  0
    7.4412   -6.9038   16.9283 C   0  0  0  0  0  0  0  0  0  0  0  0
  1 21  4  0
  1 23  4  0
  2  5  1  0
  2 13  4  0
  2 16  4  0
  3  6  4  0
  3  7  4  0
  4 13  4  0
  4 19  4  0
  4 24  4  0
  6 23  4  0
  7 16  1  0
  7 21  4  0
  8 18  1  0
  9 20  4  0
  9 22  4  0
 10 17  1  0
 10 25  1  0
 11 16  4  0
 11 19  4  0
 12 15  4  0
 12 22  4  0
 14 24  4  0
 14 25  4  0
 15 17  4  0
 17 20  4  0
 18 23  1  0
 19 25  4  0
M  END
$$$$

 Created by Python create_sdf_string function

 25 28  0  0  0  0  0  0  0  0999 V2000
   13.1533   -5.2399   21.0682 C   0  0  0  0  0  0  0  0  0  0  0  0
   10.4729   -4.0295   17.6135 C   0  0  0  0  0  0  0  0  0  0  0  0
   10.4789   -4.3641   20.9564 C   0  0  0  0  0  0  0  0  0  0  0  0
    8.7421   -5.1412   16.3650 C   0  0  0  0  0  0  0  0  0  0  0  0
   11.4353   -2.9204   17.8044 C   0  0  0  0  0  0  0  0  0  0  0  0
   11.1529   -4.3028   22.1277 C   0  0  0  0  0  0  0  0  0  0  0  0
   11.1290   -4.8502   19.8052 C   0  0  0  0  0  0  0  0  0  0  0  0
   12.4329   -4.2159   24.4224 C   0  0  0  0  0  0  0  0  0  0  0  0
    3.4740   -9.0387   16.5022 C   0  0  0  0  0  0  0  0  0  0  0  0
    6.8384   -7.9290   17.5282 N   0  0  0  0  0  0  0  0  0  0  0  0
    9.4126   -5.9853   18.4899 C   0  0  0  0  0  0  0  0  0  0  0  0
    4.2064  -10.3242   18.3302 C   0  0  0  0  0  0  0  0  0  0  0  0
    9.6599   -4.1551   16.4796 N   0  0  0  0  0  0  0  0  0  0  0  0
    7.0644   -6.4612   15.7375 N   0  0  0  0  0  0  0  0  0  0  0  0
    5.3549   -9.6322   18.3190 C   0  0  0  0  0  0  0  0  0  0  0  0
   10.3704   -4.9638   18.6510 C   0  0  0  0  0  0  0  0  0  0  0  0
    5.5935   -8.6419   17.4234 C   0  0  0  0  0  0  0  0  0  0  0  0
   13.0726   -4.6648   23.3394 O   0  0  0  0  0  0  0  0  0  0  0  0
    8.5955   -6.0705   17.3996 C   0  0  0  0  0  0  0  0  0  0  0  0
    4.6223   -8.3832   16.5030 C   0  0  0  0  0  0  0  0  0  0  0  0
   12.4690   -5.2624   19.9024 C   0  0  0  0  0  0  0  0  0  0  0  0
    3.2548   -9.9919   17.4189 C   0  0  0  0  0  0  0  0  0  0  0  0
   12.4767   -4.7393   22.1790 C   0  0  0  0  0  0  0  0  0  0  0  0
    7.8593   -5.3772   15.3569 N   0  0  0  0  0  0  0  0  0  0  0  0
    7.4412   -6.9038   16.9283 C   0  0  0  0  0  0  0  0  0  0  0  0
  1 21  4  0
  1 23  4  0
  2  5  1  0
  2 13  4  0
  2 16  4  0
  3  6  4  0
  3  7  4  0
  4 13  4  0
  4 19  4  0
  4 24  4  0
  6 23  4  0
  7 16  1  0
  7 21  4  0
  8 18  1  0
  9 20  4  0
  9 22  4  0
 10 17  1  0
 10 25  1  0
 11 16  4  0
 11 19  4  0
 12 15  4  0
 12 22  4  0
 14 24  4  0
 14 25  4  0
 15 17  4  0
 17 20  4  0
 18 23  1  0
 19 25  4  0
M  END
$$$$

 Created by Python create_sdf_string function

 25 28  0  0  0  0  0  0  0  0999 V2000
   13.1533   -5.2399   21.0682 C   0  0  0  0  0  0  0  0  0  0  0  0
   10.4729   -4.0295   17.6135 C   0  0  0  0  0  0  0  0  0  0  0  0
   10.4789   -4.3641   20.9564 C   0  0  0  0  0  0  0  0  0  0  0  0
    8.7421   -5.1412   16.3650 C   0  0  0  0  0  0  0  0  0  0  0  0
   11.4353   -2.9204   17.8044 C   0  0  0  0  0  0  0  0  0  0  0  0
   11.1529   -4.3028   22.1277 C   0  0  0  0  0  0  0  0  0  0  0  0
   11.1290   -4.8502   19.8052 C   0  0  0  0  0  0  0  0  0  0  0  0
   12.4329   -4.2159   24.4224 C   0  0  0  0  0  0  0  0  0  0  0  0
    3.4740   -9.0387   16.5022 C   0  0  0  0  0  0  0  0  0  0  0  0
    6.8384   -7.9290   17.5282 N   0  0  0  0  0  0  0  0  0  0  0  0
    9.4126   -5.9853   18.4899 C   0  0  0  0  0  0  0  0  0  0  0  0
    4.2064  -10.3242   18.3302 C   0  0  0  0  0  0  0  0  0  0  0  0
    9.6599   -4.1551   16.4796 N   0  0  0  0  0  0  0  0  0  0  0  0
    7.0644   -6.4612   15.7375 N   0  0  0  0  0  0  0  0  0  0  0  0
    5.3549   -9.6322   18.3190 C   0  0  0  0  0  0  0  0  0  0  0  0
   10.3704   -4.9638   18.6510 C   0  0  0  0  0  0  0  0  0  0  0  0
    5.5935   -8.6419   17.4234 C   0  0  0  0  0  0  0  0  0  0  0  0
   13.0726   -4.6648   23.3394 O   0  0  0  0  0  0  0  0  0  0  0  0
    8.5955   -6.0705   17.3996 C   0  0  0  0  0  0  0  0  0  0  0  0
    4.6223   -8.3832   16.5030 C   0  0  0  0  0  0  0  0  0  0  0  0
   12.4690   -5.2624   19.9024 C   0  0  0  0  0  0  0  0  0  0  0  0
    3.2548   -9.9919   17.4189 C   0  0  0  0  0  0  0  0  0  0  0  0
   12.4767   -4.7393   22.1790 C   0  0  0  0  0  0  0  0  0  0  0  0
    7.8593   -5.3772   15.3569 N   0  0  0  0  0  0  0  0  0  0  0  0
    7.4412   -6.9038   16.9283 C   0  0  0  0  0  0  0  0  0  0  0  0
  1 21  4  0
  1 23  4  0
  2  5  1  0
  2 13  4  0
  2 16  4  0
  3  6  4  0
  3  7  4  0
  4 13  4  0
  4 19  4  0
  4 24  4  0
  6 23  4  0
  7 16  1  0
  7 21  4  0
  8 18  1  0
  9 20  4  0
  9 22  4  0
 10 17  1  0
 10 25  1  0
 11 16  4  0
 11 19  4  0
 12 15  4  0
 12 22  4  0
 14 24  4  0
 14 25  4  0
 15 17  4  0
 17 20  4  0
 18 23  1  0
 19 25  4  0
M  END
$$$$

 Created by Python create_sdf_string function

 25 28  0  0  0  0  0  0  0  0999 V2000
   13.1533   -5.2399   21.0682 C   0  0  0  0  0  0  0  0  0  0  0  0
   10.4729   -4.0295   17.6135 C   0  0  0  0  0  0  0  0  0  0  0  0
   10.4789   -4.3641   20.9564 C   0  0  0  0  0  0  0  0  0  0  0  0
    8.7421   -5.1412   16.3650 C   0  0  0  0  0  0  0  0  0  0  0  0
   11.4353   -2.9204   17.8044 C   0  0  0  0  0  0  0  0  0  0  0  0
   11.1529   -4.3028   22.1277 C   0  0  0  0  0  0  0  0  0  0  0  0
   11.1290   -4.8502   19.8052 C   0  0  0  0  0  0  0  0  0  0  0  0
   12.4329   -4.2159   24.4224 C   0  0  0  0  0  0  0  0  0  0  0  0
    3.4740   -9.0387   16.5022 C   0  0  0  0  0  0  0  0  0  0  0  0
    6.8384   -7.9290   17.5282 N   0  0  0  0  0  0  0  0  0  0  0  0
    9.4126   -5.9853   18.4899 C   0  0  0  0  0  0  0  0  0  0  0  0
    4.2064  -10.3242   18.3302 C   0  0  0  0  0  0  0  0  0  0  0  0
    9.6599   -4.1551   16.4796 N   0  0  0  0  0  0  0  0  0  0  0  0
    7.0644   -6.4612   15.7375 N   0  0  0  0  0  0  0  0  0  0  0  0
    5.3549   -9.6322   18.3190 C   0  0  0  0  0  0  0  0  0  0  0  0
   10.3704   -4.9638   18.6510 C   0  0  0  0  0  0  0  0  0  0  0  0
    5.5935   -8.6419   17.4234 C   0  0  0  0  0  0  0  0  0  0  0  0
   13.0726   -4.6648   23.3394 O   0  0  0  0  0  0  0  0  0  0  0  0
    8.5955   -6.0705   17.3996 C   0  0  0  0  0  0  0  0  0  0  0  0
    4.6223   -8.3832   16.5030 C   0  0  0  0  0  0  0  0  0  0  0  0
   12.4690   -5.2624   19.9024 C   0  0  0  0  0  0  0  0  0  0  0  0
    3.2548   -9.9919   17.4189 C   0  0  0  0  0  0  0  0  0  0  0  0
   12.4767   -4.7393   22.1790 C   0  0  0  0  0  0  0  0  0  0  0  0
    7.8593   -5.3772   15.3569 N   0  0  0  0  0  0  0  0  0  0  0  0
    7.4412   -6.9038   16.9283 C   0  0  0  0  0  0  0  0  0  0  0  0
  1 21  4  0
  1 23  4  0
  2  5  1  0
  2 13  4  0
  2 16  4  0
  3  6  4  0
  3  7  4  0
  4 13  4  0
  4 19  4  0
  4 24  4  0
  6 23  4  0
  7 16  1  0
  7 21  4  0
  8 18  1  0
  9 20  4  0
  9 22  4  0
 10 17  1  0
 10 25  1  0
 11 16  4  0
 11 19  4  0
 12 15  4  0
 12 22  4  0
 14 24  4  0
 14 25  4  0
 15 17  4  0
 17 20  4  0
 18 23  1  0
 19 25  4  0
M  END
$$$$

 Created by Python create_sdf_string function

 25 28  0  0  0  0  0  0  0  0999 V2000
   13.1533   -5.2399   21.0682 C   0  0  0  0  0  0  0  0  0  0  0  0
   10.4729   -4.0295   17.6135 C   0  0  0  0  0  0  0  0  0  0  0  0
   10.4789   -4.3641   20.9564 C   0  0  0  0  0  0  0  0  0  0  0  0
    8.7421   -5.1412   16.3650 C   0  0  0  0  0  0  0  0  0  0  0  0
   11.4353   -2.9204   17.8044 C   0  0  0  0  0  0  0  0  0  0  0  0
   11.1529   -4.3028   22.1277 C   0  0  0  0  0  0  0  0  0  0  0  0
   11.1290   -4.8502   19.8052 C   0  0  0  0  0  0  0  0  0  0  0  0
   12.4329   -4.2159   24.4224 C   0  0  0  0  0  0  0  0  0  0  0  0
    3.4740   -9.0387   16.5022 C   0  0  0  0  0  0  0  0  0  0  0  0
    6.8384   -7.9290   17.5282 N   0  0  0  0  0  0  0  0  0  0  0  0
    9.4126   -5.9853   18.4899 C   0  0  0  0  0  0  0  0  0  0  0  0
    4.2064  -10.3242   18.3302 C   0  0  0  0  0  0  0  0  0  0  0  0
    9.6599   -4.1551   16.4796 N   0  0  0  0  0  0  0  0  0  0  0  0
    7.0644   -6.4612   15.7375 N   0  0  0  0  0  0  0  0  0  0  0  0
    5.3549   -9.6322   18.3190 C   0  0  0  0  0  0  0  0  0  0  0  0
   10.3704   -4.9638   18.6510 C   0  0  0  0  0  0  0  0  0  0  0  0
    5.5935   -8.6419   17.4234 C   0  0  0  0  0  0  0  0  0  0  0  0
   13.0726   -4.6648   23.3394 O   0  0  0  0  0  0  0  0  0  0  0  0
    8.5955   -6.0705   17.3996 C   0  0  0  0  0  0  0  0  0  0  0  0
    4.6223   -8.3832   16.5030 C   0  0  0  0  0  0  0  0  0  0  0  0
   12.4690   -5.2624   19.9024 C   0  0  0  0  0  0  0  0  0  0  0  0
    3.2548   -9.9919   17.4189 C   0  0  0  0  0  0  0  0  0  0  0  0
   12.4767   -4.7393   22.1790 C   0  0  0  0  0  0  0  0  0  0  0  0
    7.8593   -5.3772   15.3569 N   0  0  0  0  0  0  0  0  0  0  0  0
    7.4412   -6.9038   16.9283 C   0  0  0  0  0  0  0  0  0  0  0  0
  1 21  4  0
  1 23  4  0
  2  5  1  0
  2 13  4  0
  2 16  4  0
  3  6  4  0
  3  7  4  0
  4 13  4  0
  4 19  4  0
  4 24  4  0
  6 23  4  0
  7 16  1  0
  7 21  4  0
  8 18  1  0
  9 20  4  0
  9 22  4  0
 10 17  1  0
 10 25  1  0
 11 16  4  0
 11 19  4  0
 12 15  4  0
 12 22  4  0
 14 24  4  0
 14 25  4  0
 15 17  4  0
 17 20  4  0
 18 23  1  0
 19 25  4  0
M  END
$$$$

 Created by Python create_sdf_string function

 25 28  0  0  0  0  0  0  0  0999 V2000
   13.1533   -5.2399   21.0682 C   0  0  0  0  0  0  0  0  0  0  0  0
   10.4729   -4.0295   17.6135 C   0  0  0  0  0  0  0  0  0  0  0  0
   10.4789   -4.3641   20.9564 C   0  0  0  0  0  0  0  0  0  0  0  0
    8.7421   -5.1412   16.3650 C   0  0  0  0  0  0  0  0  0  0  0  0
   11.4353   -2.9204   17.8044 C   0  0  0  0  0  0  0  0  0  0  0  0
   11.1529   -4.3028   22.1277 C   0  0  0  0  0  0  0  0  0  0  0  0
   11.1290   -4.8502   19.8052 C   0  0  0  0  0  0  0  0  0  0  0  0
   12.4329   -4.2159   24.4224 C   0  0  0  0  0  0  0  0  0  0  0  0
    3.4740   -9.0387   16.5022 C   0  0  0  0  0  0  0  0  0  0  0  0
    6.8384   -7.9290   17.5282 N   0  0  0  0  0  0  0  0  0  0  0  0
    9.4126   -5.9853   18.4899 C   0  0  0  0  0  0  0  0  0  0  0  0
    4.2064  -10.3242   18.3302 C   0  0  0  0  0  0  0  0  0  0  0  0
    9.6599   -4.1551   16.4796 N   0  0  0  0  0  0  0  0  0  0  0  0
    7.0644   -6.4612   15.7375 N   0  0  0  0  0  0  0  0  0  0  0  0
    5.3549   -9.6322   18.3190 C   0  0  0  0  0  0  0  0  0  0  0  0
   10.3704   -4.9638   18.6510 C   0  0  0  0  0  0  0  0  0  0  0  0
    5.5935   -8.6419   17.4234 C   0  0  0  0  0  0  0  0  0  0  0  0
   13.0726   -4.6648   23.3394 O   0  0  0  0  0  0  0  0  0  0  0  0
    8.5955   -6.0705   17.3996 C   0  0  0  0  0  0  0  0  0  0  0  0
    4.6223   -8.3832   16.5030 C   0  0  0  0  0  0  0  0  0  0  0  0
   12.4690   -5.2624   19.9024 C   0  0  0  0  0  0  0  0  0  0  0  0
    3.2548   -9.9919   17.4189 C   0  0  0  0  0  0  0  0  0  0  0  0
   12.4767   -4.7393   22.1790 C   0  0  0  0  0  0  0  0  0  0  0  0
    7.8593   -5.3772   15.3569 N   0  0  0  0  0  0  0  0  0  0  0  0
    7.4412   -6.9038   16.9283 C   0  0  0  0  0  0  0  0  0  0  0  0
  1 21  4  0
  1 23  4  0
  2  5  1  0
  2 13  4  0
  2 16  4  0
  3  6  4  0
  3  7  4  0
  4 13  4  0
  4 19  4  0
  4 24  4  0
  6 23  4  0
  7 16  1  0
  7 21  4  0
  8 18  1  0
  9 20  4  0
  9 22  4  0
 10 17  1  0
 10 25  1  0
 11 16  4  0
 11 19  4  0
 12 15  4  0
 12 22  4  0
 14 24  4  0
 14 25  4  0
 15 17  4  0
 17 20  4  0
 18 23  1  0
 19 25  4  0
M  END
$$$$

 Created by Python create_sdf_string function

 25 28  0  0  0  0  0  0  0  0999 V2000
   13.1533   -5.2399   21.0682 C   0  0  0  0  0  0  0  0  0  0  0  0
   10.4729   -4.0295   17.6135 C   0  0  0  0  0  0  0  0  0  0  0  0
   10.4789   -4.3641   20.9564 C   0  0  0  0  0  0  0  0  0  0  0  0
    8.7421   -5.1412   16.3650 C   0  0  0  0  0  0  0  0  0  0  0  0
   11.4353   -2.9204   17.8044 C   0  0  0  0  0  0  0  0  0  0  0  0
   11.1529   -4.3028   22.1277 C   0  0  0  0  0  0  0  0  0  0  0  0
   11.1290   -4.8502   19.8052 C   0  0  0  0  0  0  0  0  0  0  0  0
   12.4329   -4.2159   24.4224 C   0  0  0  0  0  0  0  0  0  0  0  0
    3.4740   -9.0387   16.5022 C   0  0  0  0  0  0  0  0  0  0  0  0
    6.8384   -7.9290   17.5282 N   0  0  0  0  0  0  0  0  0  0  0  0
    9.4126   -5.9853   18.4899 C   0  0  0  0  0  0  0  0  0  0  0  0
    4.2064  -10.3242   18.3302 C   0  0  0  0  0  0  0  0  0  0  0  0
    9.6599   -4.1551   16.4796 N   0  0  0  0  0  0  0  0  0  0  0  0
    7.0644   -6.4612   15.7375 N   0  0  0  0  0  0  0  0  0  0  0  0
    5.3549   -9.6322   18.3190 C   0  0  0  0  0  0  0  0  0  0  0  0
   10.3704   -4.9638   18.6510 C   0  0  0  0  0  0  0  0  0  0  0  0
    5.5935   -8.6419   17.4234 C   0  0  0  0  0  0  0  0  0  0  0  0
   13.0726   -4.6648   23.3394 O   0  0  0  0  0  0  0  0  0  0  0  0
    8.5955   -6.0705   17.3996 C   0  0  0  0  0  0  0  0  0  0  0  0
    4.6223   -8.3832   16.5030 C   0  0  0  0  0  0  0  0  0  0  0  0
   12.4690   -5.2624   19.9024 C   0  0  0  0  0  0  0  0  0  0  0  0
    3.2548   -9.9919   17.4189 C   0  0  0  0  0  0  0  0  0  0  0  0
   12.4767   -4.7393   22.1790 C   0  0  0  0  0  0  0  0  0  0  0  0
    7.8593   -5.3772   15.3569 N   0  0  0  0  0  0  0  0  0  0  0  0
    7.4412   -6.9038   16.9283 C   0  0  0  0  0  0  0  0  0  0  0  0
  1 21  4  0
  1 23  4  0
  2  5  1  0
  2 13  4  0
  2 16  4  0
  3  6  4  0
  3  7  4  0
  4 13  4  0
  4 19  4  0
  4 24  4  0
  6 23  4  0
  7 16  1  0
  7 21  4  0
  8 18  1  0
  9 20  4  0
  9 22  4  0
 10 17  1  0
 10 25  1  0
 11 16  4  0
 11 19  4  0
 12 15  4  0
 12 22  4  0
 14 24  4  0
 14 25  4  0
 15 17  4  0
 17 20  4  0
 18 23  1  0
 19 25  4  0
M  END
$$$$

 Created by Python create_sdf_string function

 25 28  0  0  0  0  0  0  0  0999 V2000
   13.1533   -5.2399   21.0682 C   0  0  0  0  0  0  0  0  0  0  0  0
   10.4729   -4.0295   17.6135 C   0  0  0  0  0  0  0  0  0  0  0  0
   10.4789   -4.3641   20.9564 C   0  0  0  0  0  0  0  0  0  0  0  0
    8.7421   -5.1412   16.3650 C   0  0  0  0  0  0  0  0  0  0  0  0
   11.4353   -2.9204   17.8044 C   0  0  0  0  0  0  0  0  0  0  0  0
   11.1529   -4.3028   22.1277 C   0  0  0  0  0  0  0  0  0  0  0  0
   11.1290   -4.8502   19.8052 C   0  0  0  0  0  0  0  0  0  0  0  0
   12.4329   -4.2159   24.4224 C   0  0  0  0  0  0  0  0  0  0  0  0
    3.4740   -9.0387   16.5022 C   0  0  0  0  0  0  0  0  0  0  0  0
    6.8384   -7.9290   17.5282 N   0  0  0  0  0  0  0  0  0  0  0  0
    9.4126   -5.9853   18.4899 C   0  0  0  0  0  0  0  0  0  0  0  0
    4.2064  -10.3242   18.3302 C   0  0  0  0  0  0  0  0  0  0  0  0
    9.6599   -4.1551   16.4796 N   0  0  0  0  0  0  0  0  0  0  0  0
    7.0644   -6.4612   15.7375 N   0  0  0  0  0  0  0  0  0  0  0  0
    5.3549   -9.6322   18.3190 C   0  0  0  0  0  0  0  0  0  0  0  0
   10.3704   -4.9638   18.6510 C   0  0  0  0  0  0  0  0  0  0  0  0
    5.5935   -8.6419   17.4234 C   0  0  0  0  0  0  0  0  0  0  0  0
   13.0726   -4.6648   23.3394 O   0  0  0  0  0  0  0  0  0  0  0  0
    8.5955   -6.0705   17.3996 C   0  0  0  0  0  0  0  0  0  0  0  0
    4.6223   -8.3832   16.5030 C   0  0  0  0  0  0  0  0  0  0  0  0
   12.4690   -5.2624   19.9024 C   0  0  0  0  0  0  0  0  0  0  0  0
    3.2548   -9.9919   17.4189 C   0  0  0  0  0  0  0  0  0  0  0  0
   12.4767   -4.7393   22.1790 C   0  0  0  0  0  0  0  0  0  0  0  0
    7.8593   -5.3772   15.3569 N   0  0  0  0  0  0  0  0  0  0  0  0
    7.4412   -6.9038   16.9283 C   0  0  0  0  0  0  0  0  0  0  0  0
  1 21  4  0
  1 23  4  0
  2  5  1  0
  2 13  4  0
  2 16  4  0
  3  6  4  0
  3  7  4  0
  4 13  4  0
  4 19  4  0
  4 24  4  0
  6 23  4  0
  7 16  1  0
  7 21  4  0
  8 18  1  0
  9 20  4  0
  9 22  4  0
 10 17  1  0
 10 25  1  0
 11 16  4  0
 11 19  4  0
 12 15  4  0
 12 22  4  0
 14 24  4  0
 14 25  4  0
 15 17  4  0
 17 20  4  0
 18 23  1  0
 19 25  4  0
M  END
$$$$

 Created by Python create_sdf_string function

 25 28  0  0  0  0  0  0  0  0999 V2000
   13.1533   -5.2399   21.0682 C   0  0  0  0  0  0  0  0  0  0  0  0
   10.4729   -4.0295   17.6135 C   0  0  0  0  0  0  0  0  0  0  0  0
   10.4789   -4.3641   20.9564 C   0  0  0  0  0  0  0  0  0  0  0  0
    8.7421   -5.1412   16.3650 C   0  0  0  0  0  0  0  0  0  0  0  0
   11.4353   -2.9204   17.8044 C   0  0  0  0  0  0  0  0  0  0  0  0
   11.1529   -4.3028   22.1277 C   0  0  0  0  0  0  0  0  0  0  0  0
   11.1290   -4.8502   19.8052 C   0  0  0  0  0  0  0  0  0  0  0  0
   12.4329   -4.2159   24.4224 C   0  0  0  0  0  0  0  0  0  0  0  0
    3.4740   -9.0387   16.5022 C   0  0  0  0  0  0  0  0  0  0  0  0
    6.8384   -7.9290   17.5282 N   0  0  0  0  0  0  0  0  0  0  0  0
    9.4126   -5.9853   18.4899 C   0  0  0  0  0  0  0  0  0  0  0  0
    4.2064  -10.3242   18.3302 C   0  0  0  0  0  0  0  0  0  0  0  0
    9.6599   -4.1551   16.4796 N   0  0  0  0  0  0  0  0  0  0  0  0
    7.0644   -6.4612   15.7375 N   0  0  0  0  0  0  0  0  0  0  0  0
    5.3549   -9.6322   18.3190 C   0  0  0  0  0  0  0  0  0  0  0  0
   10.3704   -4.9638   18.6510 C   0  0  0  0  0  0  0  0  0  0  0  0
    5.5935   -8.6419   17.4234 C   0  0  0  0  0  0  0  0  0  0  0  0
   13.0726   -4.6648   23.3394 O   0  0  0  0  0  0  0  0  0  0  0  0
    8.5955   -6.0705   17.3996 C   0  0  0  0  0  0  0  0  0  0  0  0
    4.6223   -8.3832   16.5030 C   0  0  0  0  0  0  0  0  0  0  0  0
   12.4690   -5.2624   19.9024 C   0  0  0  0  0  0  0  0  0  0  0  0
    3.2548   -9.9919   17.4189 C   0  0  0  0  0  0  0  0  0  0  0  0
   12.4767   -4.7393   22.1790 C   0  0  0  0  0  0  0  0  0  0  0  0
    7.8593   -5.3772   15.3569 N   0  0  0  0  0  0  0  0  0  0  0  0
    7.4412   -6.9038   16.9283 C   0  0  0  0  0  0  0  0  0  0  0  0
  1 21  4  0
  1 23  4  0
  2  5  1  0
  2 13  4  0
  2 16  4  0
  3  6  4  0
  3  7  4  0
  4 13  4  0
  4 19  4  0
  4 24  4  0
  6 23  4  0
  7 16  1  0
  7 21  4  0
  8 18  1  0
  9 20  4  0
  9 22  4  0
 10 17  1  0
 10 25  1  0
 11 16  4  0
 11 19  4  0
 12 15  4  0
 12 22  4  0
 14 24  4  0
 14 25  4  0
 15 17  4  0
 17 20  4  0
 18 23  1  0
 19 25  4  0
M  END
$$$$

 Created by Python create_sdf_string function

 25 28  0  0  0  0  0  0  0  0999 V2000
   13.1533   -5.2399   21.0682 C   0  0  0  0  0  0  0  0  0  0  0  0
   10.4729   -4.0295   17.6135 C   0  0  0  0  0  0  0  0  0  0  0  0
   10.4789   -4.3641   20.9564 C   0  0  0  0  0  0  0  0  0  0  0  0
    8.7421   -5.1412   16.3650 C   0  0  0  0  0  0  0  0  0  0  0  0
   11.4353   -2.9204   17.8044 C   0  0  0  0  0  0  0  0  0  0  0  0
   11.1529   -4.3028   22.1277 C   0  0  0  0  0  0  0  0  0  0  0  0
   11.1290   -4.8502   19.8052 C   0  0  0  0  0  0  0  0  0  0  0  0
   12.4329   -4.2159   24.4224 C   0  0  0  0  0  0  0  0  0  0  0  0
    3.4740   -9.0387   16.5022 C   0  0  0  0  0  0  0  0  0  0  0  0
    6.8384   -7.9290   17.5282 N   0  0  0  0  0  0  0  0  0  0  0  0
    9.4126   -5.9853   18.4899 C   0  0  0  0  0  0  0  0  0  0  0  0
    4.2064  -10.3242   18.3302 C   0  0  0  0  0  0  0  0  0  0  0  0
    9.6599   -4.1551   16.4796 N   0  0  0  0  0  0  0  0  0  0  0  0
    7.0644   -6.4612   15.7375 N   0  0  0  0  0  0  0  0  0  0  0  0
    5.3549   -9.6322   18.3190 C   0  0  0  0  0  0  0  0  0  0  0  0
   10.3704   -4.9638   18.6510 C   0  0  0  0  0  0  0  0  0  0  0  0
    5.5935   -8.6419   17.4234 C   0  0  0  0  0  0  0  0  0  0  0  0
   13.0726   -4.6648   23.3394 O   0  0  0  0  0  0  0  0  0  0  0  0
    8.5955   -6.0705   17.3996 C   0  0  0  0  0  0  0  0  0  0  0  0
    4.6223   -8.3832   16.5030 C   0  0  0  0  0  0  0  0  0  0  0  0
   12.4690   -5.2624   19.9024 C   0  0  0  0  0  0  0  0  0  0  0  0
    3.2548   -9.9919   17.4189 C   0  0  0  0  0  0  0  0  0  0  0  0
   12.4767   -4.7393   22.1790 C   0  0  0  0  0  0  0  0  0  0  0  0
    7.8593   -5.3772   15.3569 N   0  0  0  0  0  0  0  0  0  0  0  0
    7.4412   -6.9038   16.9283 C   0  0  0  0  0  0  0  0  0  0  0  0
  1 21  4  0
  1 23  4  0
  2  5  1  0
  2 13  4  0
  2 16  4  0
  3  6  4  0
  3  7  4  0
  4 13  4  0
  4 19  4  0
  4 24  4  0
  6 23  4  0
  7 16  1  0
  7 21  4  0
  8 18  1  0
  9 20  4  0
  9 22  4  0
 10 17  1  0
 10 25  1  0
 11 16  4  0
 11 19  4  0
 12 15  4  0
 12 22  4  0
 14 24  4  0
 14 25  4  0
 15 17  4  0
 17 20  4  0
 18 23  1  0
 19 25  4  0
M  END
$$$$

 Created by Python create_sdf_string function

 25 28  0  0  0  0  0  0  0  0999 V2000
   13.1533   -5.2399   21.0682 C   0  0  0  0  0  0  0  0  0  0  0  0
   10.4729   -4.0295   17.6135 C   0  0  0  0  0  0  0  0  0  0  0  0
   10.4789   -4.3641   20.9564 C   0  0  0  0  0  0  0  0  0  0  0  0
    8.7421   -5.1412   16.3650 C   0  0  0  0  0  0  0  0  0  0  0  0
   11.4353   -2.9204   17.8044 C   0  0  0  0  0  0  0  0  0  0  0  0
   11.1529   -4.3028   22.1277 C   0  0  0  0  0  0  0  0  0  0  0  0
   11.1290   -4.8502   19.8052 C   0  0  0  0  0  0  0  0  0  0  0  0
   12.4329   -4.2159   24.4224 C   0  0  0  0  0  0  0  0  0  0  0  0
    3.4740   -9.0387   16.5022 C   0  0  0  0  0  0  0  0  0  0  0  0
    6.8384   -7.9290   17.5282 N   0  0  0  0  0  0  0  0  0  0  0  0
    9.4126   -5.9853   18.4899 C   0  0  0  0  0  0  0  0  0  0  0  0
    4.2064  -10.3242   18.3302 C   0  0  0  0  0  0  0  0  0  0  0  0
    9.6599   -4.1551   16.4796 N   0  0  0  0  0  0  0  0  0  0  0  0
    7.0644   -6.4612   15.7375 N   0  0  0  0  0  0  0  0  0  0  0  0
    5.3549   -9.6322   18.3190 C   0  0  0  0  0  0  0  0  0  0  0  0
   10.3704   -4.9638   18.6510 C   0  0  0  0  0  0  0  0  0  0  0  0
    5.5935   -8.6419   17.4234 C   0  0  0  0  0  0  0  0  0  0  0  0
   13.0726   -4.6648   23.3394 O   0  0  0  0  0  0  0  0  0  0  0  0
    8.5955   -6.0705   17.3996 C   0  0  0  0  0  0  0  0  0  0  0  0
    4.6223   -8.3832   16.5030 C   0  0  0  0  0  0  0  0  0  0  0  0
   12.4690   -5.2624   19.9024 C   0  0  0  0  0  0  0  0  0  0  0  0
    3.2548   -9.9919   17.4189 C   0  0  0  0  0  0  0  0  0  0  0  0
   12.4767   -4.7393   22.1790 C   0  0  0  0  0  0  0  0  0  0  0  0
    7.8593   -5.3772   15.3569 N   0  0  0  0  0  0  0  0  0  0  0  0
    7.4412   -6.9038   16.9283 C   0  0  0  0  0  0  0  0  0  0  0  0
  1 21  4  0
  1 23  4  0
  2  5  1  0
  2 13  4  0
  2 16  4  0
  3  6  4  0
  3  7  4  0
  4 13  4  0
  4 19  4  0
  4 24  4  0
  6 23  4  0
  7 16  1  0
  7 21  4  0
  8 18  1  0
  9 20  4  0
  9 22  4  0
 10 17  1  0
 10 25  1  0
 11 16  4  0
 11 19  4  0
 12 15  4  0
 12 22  4  0
 14 24  4  0
 14 25  4  0
 15 17  4  0
 17 20  4  0
 18 23  1  0
 19 25  4  0
M  END
$$$$

 Created by Python create_sdf_string function

 25 28  0  0  0  0  0  0  0  0999 V2000
   13.1533   -5.2399   21.0682 C   0  0  0  0  0  0  0  0  0  0  0  0
   10.4729   -4.0295   17.6135 C   0  0  0  0  0  0  0  0  0  0  0  0
   10.4789   -4.3641   20.9564 C   0  0  0  0  0  0  0  0  0  0  0  0
    8.7421   -5.1412   16.3650 C   0  0  0  0  0  0  0  0  0  0  0  0
   11.4353   -2.9204   17.8044 C   0  0  0  0  0  0  0  0  0  0  0  0
   11.1529   -4.3028   22.1277 C   0  0  0  0  0  0  0  0  0  0  0  0
   11.1290   -4.8502   19.8052 C   0  0  0  0  0  0  0  0  0  0  0  0
   12.4329   -4.2159   24.4224 C   0  0  0  0  0  0  0  0  0  0  0  0
    3.4740   -9.0387   16.5022 C   0  0  0  0  0  0  0  0  0  0  0  0
    6.8384   -7.9290   17.5282 N   0  0  0  0  0  0  0  0  0  0  0  0
    9.4126   -5.9853   18.4899 C   0  0  0  0  0  0  0  0  0  0  0  0
    4.2064  -10.3242   18.3302 C   0  0  0  0  0  0  0  0  0  0  0  0
    9.6599   -4.1551   16.4796 N   0  0  0  0  0  0  0  0  0  0  0  0
    7.0644   -6.4612   15.7375 N   0  0  0  0  0  0  0  0  0  0  0  0
    5.3549   -9.6322   18.3190 C   0  0  0  0  0  0  0  0  0  0  0  0
   10.3704   -4.9638   18.6510 C   0  0  0  0  0  0  0  0  0  0  0  0
    5.5935   -8.6419   17.4234 C   0  0  0  0  0  0  0  0  0  0  0  0
   13.0726   -4.6648   23.3394 O   0  0  0  0  0  0  0  0  0  0  0  0
    8.5955   -6.0705   17.3996 C   0  0  0  0  0  0  0  0  0  0  0  0
    4.6223   -8.3832   16.5030 C   0  0  0  0  0  0  0  0  0  0  0  0
   12.4690   -5.2624   19.9024 C   0  0  0  0  0  0  0  0  0  0  0  0
    3.2548   -9.9919   17.4189 C   0  0  0  0  0  0  0  0  0  0  0  0
   12.4767   -4.7393   22.1790 C   0  0  0  0  0  0  0  0  0  0  0  0
    7.8593   -5.3772   15.3569 N   0  0  0  0  0  0  0  0  0  0  0  0
    7.4412   -6.9038   16.9283 C   0  0  0  0  0  0  0  0  0  0  0  0
  1 21  4  0
  1 23  4  0
  2  5  1  0
  2 13  4  0
  2 16  4  0
  3  6  4  0
  3  7  4  0
  4 13  4  0
  4 19  4  0
  4 24  4  0
  6 23  4  0
  7 16  1  0
  7 21  4  0
  8 18  1  0
  9 20  4  0
  9 22  4  0
 10 17  1  0
 10 25  1  0
 11 16  4  0
 11 19  4  0
 12 15  4  0
 12 22  4  0
 14 24  4  0
 14 25  4  0
 15 17  4  0
 17 20  4  0
 18 23  1  0
 19 25  4  0
M  END
$$$$

 Created by Python create_sdf_string function

 25 28  0  0  0  0  0  0  0  0999 V2000
   13.1533   -5.2399   21.0682 C   0  0  0  0  0  0  0  0  0  0  0  0
   10.4729   -4.0295   17.6135 C   0  0  0  0  0  0  0  0  0  0  0  0
   10.4789   -4.3641   20.9564 C   0  0  0  0  0  0  0  0  0  0  0  0
    8.7421   -5.1412   16.3650 C   0  0  0  0  0  0  0  0  0  0  0  0
   11.4353   -2.9204   17.8044 C   0  0  0  0  0  0  0  0  0  0  0  0
   11.1529   -4.3028   22.1277 C   0  0  0  0  0  0  0  0  0  0  0  0
   11.1290   -4.8502   19.8052 C   0  0  0  0  0  0  0  0  0  0  0  0
   12.4329   -4.2159   24.4224 C   0  0  0  0  0  0  0  0  0  0  0  0
    3.4740   -9.0387   16.5022 C   0  0  0  0  0  0  0  0  0  0  0  0
    6.8384   -7.9290   17.5282 N   0  0  0  0  0  0  0  0  0  0  0  0
    9.4126   -5.9853   18.4899 C   0  0  0  0  0  0  0  0  0  0  0  0
    4.2064  -10.3242   18.3302 C   0  0  0  0  0  0  0  0  0  0  0  0
    9.6599   -4.1551   16.4796 N   0  0  0  0  0  0  0  0  0  0  0  0
    7.0644   -6.4612   15.7375 N   0  0  0  0  0  0  0  0  0  0  0  0
    5.3549   -9.6322   18.3190 C   0  0  0  0  0  0  0  0  0  0  0  0
   10.3704   -4.9638   18.6510 C   0  0  0  0  0  0  0  0  0  0  0  0
    5.5935   -8.6419   17.4234 C   0  0  0  0  0  0  0  0  0  0  0  0
   13.0726   -4.6648   23.3394 O   0  0  0  0  0  0  0  0  0  0  0  0
    8.5955   -6.0705   17.3996 C   0  0  0  0  0  0  0  0  0  0  0  0
    4.6223   -8.3832   16.5030 C   0  0  0  0  0  0  0  0  0  0  0  0
   12.4690   -5.2624   19.9024 C   0  0  0  0  0  0  0  0  0  0  0  0
    3.2548   -9.9919   17.4189 C   0  0  0  0  0  0  0  0  0  0  0  0
   12.4767   -4.7393   22.1790 C   0  0  0  0  0  0  0  0  0  0  0  0
    7.8593   -5.3772   15.3569 N   0  0  0  0  0  0  0  0  0  0  0  0
    7.4412   -6.9038   16.9283 C   0  0  0  0  0  0  0  0  0  0  0  0
  1 21  4  0
  1 23  4  0
  2  5  1  0
  2 13  4  0
  2 16  4  0
  3  6  4  0
  3  7  4  0
  4 13  4  0
  4 19  4  0
  4 24  4  0
  6 23  4  0
  7 16  1  0
  7 21  4  0
  8 18  1  0
  9 20  4  0
  9 22  4  0
 10 17  1  0
 10 25  1  0
 11 16  4  0
 11 19  4  0
 12 15  4  0
 12 22  4  0
 14 24  4  0
 14 25  4  0
 15 17  4  0
 17 20  4  0
 18 23  1  0
 19 25  4  0
M  END
$$$$

 Created by Python create_sdf_string function

 25 28  0  0  0  0  0  0  0  0999 V2000
   13.1533   -5.2399   21.0682 C   0  0  0  0  0  0  0  0  0  0  0  0
   10.4729   -4.0295   17.6135 C   0  0  0  0  0  0  0  0  0  0  0  0
   10.4789   -4.3641   20.9564 C   0  0  0  0  0  0  0  0  0  0  0  0
    8.7421   -5.1412   16.3650 C   0  0  0  0  0  0  0  0  0  0  0  0
   11.4353   -2.9204   17.8044 C   0  0  0  0  0  0  0  0  0  0  0  0
   11.1529   -4.3028   22.1277 C   0  0  0  0  0  0  0  0  0  0  0  0
   11.1290   -4.8502   19.8052 C   0  0  0  0  0  0  0  0  0  0  0  0
   12.4329   -4.2159   24.4224 C   0  0  0  0  0  0  0  0  0  0  0  0
    3.4740   -9.0387   16.5022 C   0  0  0  0  0  0  0  0  0  0  0  0
    6.8384   -7.9290   17.5282 N   0  0  0  0  0  0  0  0  0  0  0  0
    9.4126   -5.9853   18.4899 C   0  0  0  0  0  0  0  0  0  0  0  0
    4.2064  -10.3242   18.3302 C   0  0  0  0  0  0  0  0  0  0  0  0
    9.6599   -4.1551   16.4796 N   0  0  0  0  0  0  0  0  0  0  0  0
    7.0644   -6.4612   15.7375 N   0  0  0  0  0  0  0  0  0  0  0  0
    5.3549   -9.6322   18.3190 C   0  0  0  0  0  0  0  0  0  0  0  0
   10.3704   -4.9638   18.6510 C   0  0  0  0  0  0  0  0  0  0  0  0
    5.5935   -8.6419   17.4234 C   0  0  0  0  0  0  0  0  0  0  0  0
   13.0726   -4.6648   23.3394 O   0  0  0  0  0  0  0  0  0  0  0  0
    8.5955   -6.0705   17.3996 C   0  0  0  0  0  0  0  0  0  0  0  0
    4.6223   -8.3832   16.5030 C   0  0  0  0  0  0  0  0  0  0  0  0
   12.4690   -5.2624   19.9024 C   0  0  0  0  0  0  0  0  0  0  0  0
    3.2548   -9.9919   17.4189 C   0  0  0  0  0  0  0  0  0  0  0  0
   12.4767   -4.7393   22.1790 C   0  0  0  0  0  0  0  0  0  0  0  0
    7.8593   -5.3772   15.3569 N   0  0  0  0  0  0  0  0  0  0  0  0
    7.4412   -6.9038   16.9283 C   0  0  0  0  0  0  0  0  0  0  0  0
  1 21  4  0
  1 23  4  0
  2  5  1  0
  2 13  4  0
  2 16  4  0
  3  6  4  0
  3  7  4  0
  4 13  4  0
  4 19  4  0
  4 24  4  0
  6 23  4  0
  7 16  1  0
  7 21  4  0
  8 18  1  0
  9 20  4  0
  9 22  4  0
 10 17  1  0
 10 25  1  0
 11 16  4  0
 11 19  4  0
 12 15  4  0
 12 22  4  0
 14 24  4  0
 14 25  4  0
 15 17  4  0
 17 20  4  0
 18 23  1  0
 19 25  4  0
M  END
$$$$

 Created by Python create_sdf_string function

 25 28  0  0  0  0  0  0  0  0999 V2000
   13.1533   -5.2399   21.0682 C   0  0  0  0  0  0  0  0  0  0  0  0
   10.4729   -4.0295   17.6135 C   0  0  0  0  0  0  0  0  0  0  0  0
   10.4789   -4.3641   20.9564 C   0  0  0  0  0  0  0  0  0  0  0  0
    8.7421   -5.1412   16.3650 C   0  0  0  0  0  0  0  0  0  0  0  0
   11.4353   -2.9204   17.8044 C   0  0  0  0  0  0  0  0  0  0  0  0
   11.1529   -4.3028   22.1277 C   0  0  0  0  0  0  0  0  0  0  0  0
   11.1290   -4.8502   19.8052 C   0  0  0  0  0  0  0  0  0  0  0  0
   12.4329   -4.2159   24.4224 C   0  0  0  0  0  0  0  0  0  0  0  0
    3.4740   -9.0387   16.5022 C   0  0  0  0  0  0  0  0  0  0  0  0
    6.8384   -7.9290   17.5282 N   0  0  0  0  0  0  0  0  0  0  0  0
    9.4126   -5.9853   18.4899 C   0  0  0  0  0  0  0  0  0  0  0  0
    4.2064  -10.3242   18.3302 C   0  0  0  0  0  0  0  0  0  0  0  0
    9.6599   -4.1551   16.4796 N   0  0  0  0  0  0  0  0  0  0  0  0
    7.0644   -6.4612   15.7375 N   0  0  0  0  0  0  0  0  0  0  0  0
    5.3549   -9.6322   18.3190 C   0  0  0  0  0  0  0  0  0  0  0  0
   10.3704   -4.9638   18.6510 C   0  0  0  0  0  0  0  0  0  0  0  0
    5.5935   -8.6419   17.4234 C   0  0  0  0  0  0  0  0  0  0  0  0
   13.0726   -4.6648   23.3394 O   0  0  0  0  0  0  0  0  0  0  0  0
    8.5955   -6.0705   17.3996 C   0  0  0  0  0  0  0  0  0  0  0  0
    4.6223   -8.3832   16.5030 C   0  0  0  0  0  0  0  0  0  0  0  0
   12.4690   -5.2624   19.9024 C   0  0  0  0  0  0  0  0  0  0  0  0
    3.2548   -9.9919   17.4189 C   0  0  0  0  0  0  0  0  0  0  0  0
   12.4767   -4.7393   22.1790 C   0  0  0  0  0  0  0  0  0  0  0  0
    7.8593   -5.3772   15.3569 N   0  0  0  0  0  0  0  0  0  0  0  0
    7.4412   -6.9038   16.9283 C   0  0  0  0  0  0  0  0  0  0  0  0
  1 21  4  0
  1 23  4  0
  2  5  1  0
  2 13  4  0
  2 16  4  0
  3  6  4  0
  3  7  4  0
  4 13  4  0
  4 19  4  0
  4 24  4  0
  6 23  4  0
  7 16  1  0
  7 21  4  0
  8 18  1  0
  9 20  4  0
  9 22  4  0
 10 17  1  0
 10 25  1  0
 11 16  4  0
 11 19  4  0
 12 15  4  0
 12 22  4  0
 14 24  4  0
 14 25  4  0
 15 17  4  0
 17 20  4  0
 18 23  1  0
 19 25  4  0
M  END
$$$$

 Created by Python create_sdf_string function

 25 28  0  0  0  0  0  0  0  0999 V2000
   13.1533   -5.2399   21.0682 C   0  0  0  0  0  0  0  0  0  0  0  0
   10.4729   -4.0295   17.6135 C   0  0  0  0  0  0  0  0  0  0  0  0
   10.4789   -4.3641   20.9564 C   0  0  0  0  0  0  0  0  0  0  0  0
    8.7421   -5.1412   16.3650 C   0  0  0  0  0  0  0  0  0  0  0  0
   11.4353   -2.9204   17.8044 C   0  0  0  0  0  0  0  0  0  0  0  0
   11.1529   -4.3028   22.1277 C   0  0  0  0  0  0  0  0  0  0  0  0
   11.1290   -4.8502   19.8052 C   0  0  0  0  0  0  0  0  0  0  0  0
   12.4329   -4.2159   24.4224 C   0  0  0  0  0  0  0  0  0  0  0  0
    3.4740   -9.0387   16.5022 C   0  0  0  0  0  0  0  0  0  0  0  0
    6.8384   -7.9290   17.5282 N   0  0  0  0  0  0  0  0  0  0  0  0
    9.4126   -5.9853   18.4899 C   0  0  0  0  0  0  0  0  0  0  0  0
    4.2064  -10.3242   18.3302 C   0  0  0  0  0  0  0  0  0  0  0  0
    9.6599   -4.1551   16.4796 N   0  0  0  0  0  0  0  0  0  0  0  0
    7.0644   -6.4612   15.7375 N   0  0  0  0  0  0  0  0  0  0  0  0
    5.3549   -9.6322   18.3190 C   0  0  0  0  0  0  0  0  0  0  0  0
   10.3704   -4.9638   18.6510 C   0  0  0  0  0  0  0  0  0  0  0  0
    5.5935   -8.6419   17.4234 C   0  0  0  0  0  0  0  0  0  0  0  0
   13.0726   -4.6648   23.3394 O   0  0  0  0  0  0  0  0  0  0  0  0
    8.5955   -6.0705   17.3996 C   0  0  0  0  0  0  0  0  0  0  0  0
    4.6223   -8.3832   16.5030 C   0  0  0  0  0  0  0  0  0  0  0  0
   12.4690   -5.2624   19.9024 C   0  0  0  0  0  0  0  0  0  0  0  0
    3.2548   -9.9919   17.4189 C   0  0  0  0  0  0  0  0  0  0  0  0
   12.4767   -4.7393   22.1790 C   0  0  0  0  0  0  0  0  0  0  0  0
    7.8593   -5.3772   15.3569 N   0  0  0  0  0  0  0  0  0  0  0  0
    7.4412   -6.9038   16.9283 C   0  0  0  0  0  0  0  0  0  0  0  0
  1 21  4  0
  1 23  4  0
  2  5  1  0
  2 13  4  0
  2 16  4  0
  3  6  4  0
  3  7  4  0
  4 13  4  0
  4 19  4  0
  4 24  4  0
  6 23  4  0
  7 16  1  0
  7 21  4  0
  8 18  1  0
  9 20  4  0
  9 22  4  0
 10 17  1  0
 10 25  1  0
 11 16  4  0
 11 19  4  0
 12 15  4  0
 12 22  4  0
 14 24  4  0
 14 25  4  0
 15 17  4  0
 17 20  4  0
 18 23  1  0
 19 25  4  0
M  END
$$$$

 Created by Python create_sdf_string function

 25 28  0  0  0  0  0  0  0  0999 V2000
   13.1533   -5.2399   21.0682 C   0  0  0  0  0  0  0  0  0  0  0  0
   10.4729   -4.0295   17.6135 C   0  0  0  0  0  0  0  0  0  0  0  0
   10.4789   -4.3641   20.9564 C   0  0  0  0  0  0  0  0  0  0  0  0
    8.7421   -5.1412   16.3650 C   0  0  0  0  0  0  0  0  0  0  0  0
   11.4353   -2.9204   17.8044 C   0  0  0  0  0  0  0  0  0  0  0  0
   11.1529   -4.3028   22.1277 C   0  0  0  0  0  0  0  0  0  0  0  0
   11.1290   -4.8502   19.8052 C   0  0  0  0  0  0  0  0  0  0  0  0
   12.4329   -4.2159   24.4224 C   0  0  0  0  0  0  0  0  0  0  0  0
    3.4740   -9.0387   16.5022 C   0  0  0  0  0  0  0  0  0  0  0  0
    6.8384   -7.9290   17.5282 N   0  0  0  0  0  0  0  0  0  0  0  0
    9.4126   -5.9853   18.4899 C   0  0  0  0  0  0  0  0  0  0  0  0
    4.2064  -10.3242   18.3302 C   0  0  0  0  0  0  0  0  0  0  0  0
    9.6599   -4.1551   16.4796 N   0  0  0  0  0  0  0  0  0  0  0  0
    7.0644   -6.4612   15.7375 N   0  0  0  0  0  0  0  0  0  0  0  0
    5.3549   -9.6322   18.3190 C   0  0  0  0  0  0  0  0  0  0  0  0
   10.3704   -4.9638   18.6510 C   0  0  0  0  0  0  0  0  0  0  0  0
    5.5935   -8.6419   17.4234 C   0  0  0  0  0  0  0  0  0  0  0  0
   13.0726   -4.6648   23.3394 O   0  0  0  0  0  0  0  0  0  0  0  0
    8.5955   -6.0705   17.3996 C   0  0  0  0  0  0  0  0  0  0  0  0
    4.6223   -8.3832   16.5030 C   0  0  0  0  0  0  0  0  0  0  0  0
   12.4690   -5.2624   19.9024 C   0  0  0  0  0  0  0  0  0  0  0  0
    3.2548   -9.9919   17.4189 C   0  0  0  0  0  0  0  0  0  0  0  0
   12.4767   -4.7393   22.1790 C   0  0  0  0  0  0  0  0  0  0  0  0
    7.8593   -5.3772   15.3569 N   0  0  0  0  0  0  0  0  0  0  0  0
    7.4412   -6.9038   16.9283 C   0  0  0  0  0  0  0  0  0  0  0  0
  1 21  4  0
  1 23  4  0
  2  5  1  0
  2 13  4  0
  2 16  4  0
  3  6  4  0
  3  7  4  0
  4 13  4  0
  4 19  4  0
  4 24  4  0
  6 23  4  0
  7 16  1  0
  7 21  4  0
  8 18  1  0
  9 20  4  0
  9 22  4  0
 10 17  1  0
 10 25  1  0
 11 16  4  0
 11 19  4  0
 12 15  4  0
 12 22  4  0
 14 24  4  0
 14 25  4  0
 15 17  4  0
 17 20  4  0
 18 23  1  0
 19 25  4  0
M  END
$$$$

 Created by Python create_sdf_string function

 25 28  0  0  0  0  0  0  0  0999 V2000
   13.1533   -5.2399   21.0682 C   0  0  0  0  0  0  0  0  0  0  0  0
   10.4729   -4.0295   17.6135 C   0  0  0  0  0  0  0  0  0  0  0  0
   10.4789   -4.3641   20.9564 C   0  0  0  0  0  0  0  0  0  0  0  0
    8.7421   -5.1412   16.3650 C   0  0  0  0  0  0  0  0  0  0  0  0
   11.4353   -2.9204   17.8044 C   0  0  0  0  0  0  0  0  0  0  0  0
   11.1529   -4.3028   22.1277 C   0  0  0  0  0  0  0  0  0  0  0  0
   11.1290   -4.8502   19.8052 C   0  0  0  0  0  0  0  0  0  0  0  0
   12.4329   -4.2159   24.4224 C   0  0  0  0  0  0  0  0  0  0  0  0
    3.4740   -9.0387   16.5022 C   0  0  0  0  0  0  0  0  0  0  0  0
    6.8384   -7.9290   17.5282 N   0  0  0  0  0  0  0  0  0  0  0  0
    9.4126   -5.9853   18.4899 C   0  0  0  0  0  0  0  0  0  0  0  0
    4.2064  -10.3242   18.3302 C   0  0  0  0  0  0  0  0  0  0  0  0
    9.6599   -4.1551   16.4796 N   0  0  0  0  0  0  0  0  0  0  0  0
    7.0644   -6.4612   15.7375 N   0  0  0  0  0  0  0  0  0  0  0  0
    5.3549   -9.6322   18.3190 C   0  0  0  0  0  0  0  0  0  0  0  0
   10.3704   -4.9638   18.6510 C   0  0  0  0  0  0  0  0  0  0  0  0
    5.5935   -8.6419   17.4234 C   0  0  0  0  0  0  0  0  0  0  0  0
   13.0726   -4.6648   23.3394 O   0  0  0  0  0  0  0  0  0  0  0  0
    8.5955   -6.0705   17.3996 C   0  0  0  0  0  0  0  0  0  0  0  0
    4.6223   -8.3832   16.5030 C   0  0  0  0  0  0  0  0  0  0  0  0
   12.4690   -5.2624   19.9024 C   0  0  0  0  0  0  0  0  0  0  0  0
    3.2548   -9.9919   17.4189 C   0  0  0  0  0  0  0  0  0  0  0  0
   12.4767   -4.7393   22.1790 C   0  0  0  0  0  0  0  0  0  0  0  0
    7.8593   -5.3772   15.3569 N   0  0  0  0  0  0  0  0  0  0  0  0
    7.4412   -6.9038   16.9283 C   0  0  0  0  0  0  0  0  0  0  0  0
  1 21  4  0
  1 23  4  0
  2  5  1  0
  2 13  4  0
  2 16  4  0
  3  6  4  0
  3  7  4  0
  4 13  4  0
  4 19  4  0
  4 24  4  0
  6 23  4  0
  7 16  1  0
  7 21  4  0
  8 18  1  0
  9 20  4  0
  9 22  4  0
 10 17  1  0
 10 25  1  0
 11 16  4  0
 11 19  4  0
 12 15  4  0
 12 22  4  0
 14 24  4  0
 14 25  4  0
 15 17  4  0
 17 20  4  0
 18 23  1  0
 19 25  4  0
M  END
$$$$

 Created by Python create_sdf_string function

 25 28  0  0  0  0  0  0  0  0999 V2000
   13.1533   -5.2399   21.0682 C   0  0  0  0  0  0  0  0  0  0  0  0
   10.4729   -4.0295   17.6135 C   0  0  0  0  0  0  0  0  0  0  0  0
   10.4789   -4.3641   20.9564 C   0  0  0  0  0  0  0  0  0  0  0  0
    8.7421   -5.1412   16.3650 C   0  0  0  0  0  0  0  0  0  0  0  0
   11.4353   -2.9204   17.8044 C   0  0  0  0  0  0  0  0  0  0  0  0
   11.1529   -4.3028   22.1277 C   0  0  0  0  0  0  0  0  0  0  0  0
   11.1290   -4.8502   19.8052 C   0  0  0  0  0  0  0  0  0  0  0  0
   12.4329   -4.2159   24.4224 C   0  0  0  0  0  0  0  0  0  0  0  0
    3.4740   -9.0387   16.5022 C   0  0  0  0  0  0  0  0  0  0  0  0
    6.8384   -7.9290   17.5282 N   0  0  0  0  0  0  0  0  0  0  0  0
    9.4126   -5.9853   18.4899 C   0  0  0  0  0  0  0  0  0  0  0  0
    4.2064  -10.3242   18.3302 C   0  0  0  0  0  0  0  0  0  0  0  0
    9.6599   -4.1551   16.4796 N   0  0  0  0  0  0  0  0  0  0  0  0
    7.0644   -6.4612   15.7375 N   0  0  0  0  0  0  0  0  0  0  0  0
    5.3549   -9.6322   18.3190 C   0  0  0  0  0  0  0  0  0  0  0  0
   10.3704   -4.9638   18.6510 C   0  0  0  0  0  0  0  0  0  0  0  0
    5.5935   -8.6419   17.4234 C   0  0  0  0  0  0  0  0  0  0  0  0
   13.0726   -4.6648   23.3394 O   0  0  0  0  0  0  0  0  0  0  0  0
    8.5955   -6.0705   17.3996 C   0  0  0  0  0  0  0  0  0  0  0  0
    4.6223   -8.3832   16.5030 C   0  0  0  0  0  0  0  0  0  0  0  0
   12.4690   -5.2624   19.9024 C   0  0  0  0  0  0  0  0  0  0  0  0
    3.2548   -9.9919   17.4189 C   0  0  0  0  0  0  0  0  0  0  0  0
   12.4767   -4.7393   22.1790 C   0  0  0  0  0  0  0  0  0  0  0  0
    7.8593   -5.3772   15.3569 N   0  0  0  0  0  0  0  0  0  0  0  0
    7.4412   -6.9038   16.9283 C   0  0  0  0  0  0  0  0  0  0  0  0
  1 21  4  0
  1 23  4  0
  2  5  1  0
  2 13  4  0
  2 16  4  0
  3  6  4  0
  3  7  4  0
  4 13  4  0
  4 19  4  0
  4 24  4  0
  6 23  4  0
  7 16  1  0
  7 21  4  0
  8 18  1  0
  9 20  4  0
  9 22  4  0
 10 17  1  0
 10 25  1  0
 11 16  4  0
 11 19  4  0
 12 15  4  0
 12 22  4  0
 14 24  4  0
 14 25  4  0
 15 17  4  0
 17 20  4  0
 18 23  1  0
 19 25  4  0
M  END
$$$$

 Created by Python create_sdf_string function

 25 28  0  0  0  0  0  0  0  0999 V2000
   13.1533   -5.2399   21.0682 C   0  0  0  0  0  0  0  0  0  0  0  0
   10.4729   -4.0295   17.6135 C   0  0  0  0  0  0  0  0  0  0  0  0
   10.4789   -4.3641   20.9564 C   0  0  0  0  0  0  0  0  0  0  0  0
    8.7421   -5.1412   16.3650 C   0  0  0  0  0  0  0  0  0  0  0  0
   11.4353   -2.9204   17.8044 C   0  0  0  0  0  0  0  0  0  0  0  0
   11.1529   -4.3028   22.1277 C   0  0  0  0  0  0  0  0  0  0  0  0
   11.1290   -4.8502   19.8052 C   0  0  0  0  0  0  0  0  0  0  0  0
   12.4329   -4.2159   24.4224 C   0  0  0  0  0  0  0  0  0  0  0  0
    3.4740   -9.0387   16.5022 C   0  0  0  0  0  0  0  0  0  0  0  0
    6.8384   -7.9290   17.5282 N   0  0  0  0  0  0  0  0  0  0  0  0
    9.4126   -5.9853   18.4899 C   0  0  0  0  0  0  0  0  0  0  0  0
    4.2064  -10.3242   18.3302 C   0  0  0  0  0  0  0  0  0  0  0  0
    9.6599   -4.1551   16.4796 N   0  0  0  0  0  0  0  0  0  0  0  0
    7.0644   -6.4612   15.7375 N   0  0  0  0  0  0  0  0  0  0  0  0
    5.3549   -9.6322   18.3190 C   0  0  0  0  0  0  0  0  0  0  0  0
   10.3704   -4.9638   18.6510 C   0  0  0  0  0  0  0  0  0  0  0  0
    5.5935   -8.6419   17.4234 C   0  0  0  0  0  0  0  0  0  0  0  0
   13.0726   -4.6648   23.3394 O   0  0  0  0  0  0  0  0  0  0  0  0
    8.5955   -6.0705   17.3996 C   0  0  0  0  0  0  0  0  0  0  0  0
    4.6223   -8.3832   16.5030 C   0  0  0  0  0  0  0  0  0  0  0  0
   12.4690   -5.2624   19.9024 C   0  0  0  0  0  0  0  0  0  0  0  0
    3.2548   -9.9919   17.4189 C   0  0  0  0  0  0  0  0  0  0  0  0
   12.4767   -4.7393   22.1790 C   0  0  0  0  0  0  0  0  0  0  0  0
    7.8593   -5.3772   15.3569 N   0  0  0  0  0  0  0  0  0  0  0  0
    7.4412   -6.9038   16.9283 C   0  0  0  0  0  0  0  0  0  0  0  0
  1 21  4  0
  1 23  4  0
  2  5  1  0
  2 13  4  0
  2 16  4  0
  3  6  4  0
  3  7  4  0
  4 13  4  0
  4 19  4  0
  4 24  4  0
  6 23  4  0
  7 16  1  0
  7 21  4  0
  8 18  1  0
  9 20  4  0
  9 22  4  0
 10 17  1  0
 10 25  1  0
 11 16  4  0
 11 19  4  0
 12 15  4  0
 12 22  4  0
 14 24  4  0
 14 25  4  0
 15 17  4  0
 17 20  4  0
 18 23  1  0
 19 25  4  0
M  END
$$$$

 Created by Python create_sdf_string function

 25 28  0  0  0  0  0  0  0  0999 V2000
   13.1533   -5.2399   21.0682 C   0  0  0  0  0  0  0  0  0  0  0  0
   10.4729   -4.0295   17.6135 C   0  0  0  0  0  0  0  0  0  0  0  0
   10.4789   -4.3641   20.9564 C   0  0  0  0  0  0  0  0  0  0  0  0
    8.7421   -5.1412   16.3650 C   0  0  0  0  0  0  0  0  0  0  0  0
   11.4353   -2.9204   17.8044 C   0  0  0  0  0  0  0  0  0  0  0  0
   11.1529   -4.3028   22.1277 C   0  0  0  0  0  0  0  0  0  0  0  0
   11.1290   -4.8502   19.8052 C   0  0  0  0  0  0  0  0  0  0  0  0
   12.4329   -4.2159   24.4224 C   0  0  0  0  0  0  0  0  0  0  0  0
    3.4740   -9.0387   16.5022 C   0  0  0  0  0  0  0  0  0  0  0  0
    6.8384   -7.9290   17.5282 N   0  0  0  0  0  0  0  0  0  0  0  0
    9.4126   -5.9853   18.4899 C   0  0  0  0  0  0  0  0  0  0  0  0
    4.2064  -10.3242   18.3302 C   0  0  0  0  0  0  0  0  0  0  0  0
    9.6599   -4.1551   16.4796 N   0  0  0  0  0  0  0  0  0  0  0  0
    7.0644   -6.4612   15.7375 N   0  0  0  0  0  0  0  0  0  0  0  0
    5.3549   -9.6322   18.3190 C   0  0  0  0  0  0  0  0  0  0  0  0
   10.3704   -4.9638   18.6510 C   0  0  0  0  0  0  0  0  0  0  0  0
    5.5935   -8.6419   17.4234 C   0  0  0  0  0  0  0  0  0  0  0  0
   13.0726   -4.6648   23.3394 O   0  0  0  0  0  0  0  0  0  0  0  0
    8.5955   -6.0705   17.3996 C   0  0  0  0  0  0  0  0  0  0  0  0
    4.6223   -8.3832   16.5030 C   0  0  0  0  0  0  0  0  0  0  0  0
   12.4690   -5.2624   19.9024 C   0  0  0  0  0  0  0  0  0  0  0  0
    3.2548   -9.9919   17.4189 C   0  0  0  0  0  0  0  0  0  0  0  0
   12.4767   -4.7393   22.1790 C   0  0  0  0  0  0  0  0  0  0  0  0
    7.8593   -5.3772   15.3569 N   0  0  0  0  0  0  0  0  0  0  0  0
    7.4412   -6.9038   16.9283 C   0  0  0  0  0  0  0  0  0  0  0  0
  1 21  4  0
  1 23  4  0
  2  5  1  0
  2 13  4  0
  2 16  4  0
  3  6  4  0
  3  7  4  0
  4 13  4  0
  4 19  4  0
  4 24  4  0
  6 23  4  0
  7 16  1  0
  7 21  4  0
  8 18  1  0
  9 20  4  0
  9 22  4  0
 10 17  1  0
 10 25  1  0
 11 16  4  0
 11 19  4  0
 12 15  4  0
 12 22  4  0
 14 24  4  0
 14 25  4  0
 15 17  4  0
 17 20  4  0
 18 23  1  0
 19 25  4  0
M  END
$$$$

 Created by Python create_sdf_string function

 25 28  0  0  0  0  0  0  0  0999 V2000
   13.1533   -5.2399   21.0682 C   0  0  0  0  0  0  0  0  0  0  0  0
   10.4729   -4.0295   17.6135 C   0  0  0  0  0  0  0  0  0  0  0  0
   10.4789   -4.3641   20.9564 C   0  0  0  0  0  0  0  0  0  0  0  0
    8.7421   -5.1412   16.3650 C   0  0  0  0  0  0  0  0  0  0  0  0
   11.4353   -2.9204   17.8044 C   0  0  0  0  0  0  0  0  0  0  0  0
   11.1529   -4.3028   22.1277 C   0  0  0  0  0  0  0  0  0  0  0  0
   11.1290   -4.8502   19.8052 C   0  0  0  0  0  0  0  0  0  0  0  0
   12.4329   -4.2159   24.4224 C   0  0  0  0  0  0  0  0  0  0  0  0
    3.4740   -9.0387   16.5022 C   0  0  0  0  0  0  0  0  0  0  0  0
    6.8384   -7.9290   17.5282 N   0  0  0  0  0  0  0  0  0  0  0  0
    9.4126   -5.9853   18.4899 C   0  0  0  0  0  0  0  0  0  0  0  0
    4.2064  -10.3242   18.3302 C   0  0  0  0  0  0  0  0  0  0  0  0
    9.6599   -4.1551   16.4796 N   0  0  0  0  0  0  0  0  0  0  0  0
    7.0644   -6.4612   15.7375 N   0  0  0  0  0  0  0  0  0  0  0  0
    5.3549   -9.6322   18.3190 C   0  0  0  0  0  0  0  0  0  0  0  0
   10.3704   -4.9638   18.6510 C   0  0  0  0  0  0  0  0  0  0  0  0
    5.5935   -8.6419   17.4234 C   0  0  0  0  0  0  0  0  0  0  0  0
   13.0726   -4.6648   23.3394 O   0  0  0  0  0  0  0  0  0  0  0  0
    8.5955   -6.0705   17.3996 C   0  0  0  0  0  0  0  0  0  0  0  0
    4.6223   -8.3832   16.5030 C   0  0  0  0  0  0  0  0  0  0  0  0
   12.4690   -5.2624   19.9024 C   0  0  0  0  0  0  0  0  0  0  0  0
    3.2548   -9.9919   17.4189 C   0  0  0  0  0  0  0  0  0  0  0  0
   12.4767   -4.7393   22.1790 C   0  0  0  0  0  0  0  0  0  0  0  0
    7.8593   -5.3772   15.3569 N   0  0  0  0  0  0  0  0  0  0  0  0
    7.4412   -6.9038   16.9283 C   0  0  0  0  0  0  0  0  0  0  0  0
  1 21  4  0
  1 23  4  0
  2  5  1  0
  2 13  4  0
  2 16  4  0
  3  6  4  0
  3  7  4  0
  4 13  4  0
  4 19  4  0
  4 24  4  0
  6 23  4  0
  7 16  1  0
  7 21  4  0
  8 18  1  0
  9 20  4  0
  9 22  4  0
 10 17  1  0
 10 25  1  0
 11 16  4  0
 11 19  4  0
 12 15  4  0
 12 22  4  0
 14 24  4  0
 14 25  4  0
 15 17  4  0
 17 20  4  0
 18 23  1  0
 19 25  4  0
M  END
$$$$

 Created by Python create_sdf_string function

 25 28  0  0  0  0  0  0  0  0999 V2000
   13.1533   -5.2399   21.0682 C   0  0  0  0  0  0  0  0  0  0  0  0
   10.4729   -4.0295   17.6135 C   0  0  0  0  0  0  0  0  0  0  0  0
   10.4789   -4.3641   20.9564 C   0  0  0  0  0  0  0  0  0  0  0  0
    8.7421   -5.1412   16.3650 C   0  0  0  0  0  0  0  0  0  0  0  0
   11.4353   -2.9204   17.8044 C   0  0  0  0  0  0  0  0  0  0  0  0
   11.1529   -4.3028   22.1277 C   0  0  0  0  0  0  0  0  0  0  0  0
   11.1290   -4.8502   19.8052 C   0  0  0  0  0  0  0  0  0  0  0  0
   12.4329   -4.2159   24.4224 C   0  0  0  0  0  0  0  0  0  0  0  0
    3.4740   -9.0387   16.5022 C   0  0  0  0  0  0  0  0  0  0  0  0
    6.8384   -7.9290   17.5282 N   0  0  0  0  0  0  0  0  0  0  0  0
    9.4126   -5.9853   18.4899 C   0  0  0  0  0  0  0  0  0  0  0  0
    4.2064  -10.3242   18.3302 C   0  0  0  0  0  0  0  0  0  0  0  0
    9.6599   -4.1551   16.4796 N   0  0  0  0  0  0  0  0  0  0  0  0
    7.0644   -6.4612   15.7375 N   0  0  0  0  0  0  0  0  0  0  0  0
    5.3549   -9.6322   18.3190 C   0  0  0  0  0  0  0  0  0  0  0  0
   10.3704   -4.9638   18.6510 C   0  0  0  0  0  0  0  0  0  0  0  0
    5.5935   -8.6419   17.4234 C   0  0  0  0  0  0  0  0  0  0  0  0
   13.0726   -4.6648   23.3394 O   0  0  0  0  0  0  0  0  0  0  0  0
    8.5955   -6.0705   17.3996 C   0  0  0  0  0  0  0  0  0  0  0  0
    4.6223   -8.3832   16.5030 C   0  0  0  0  0  0  0  0  0  0  0  0
   12.4690   -5.2624   19.9024 C   0  0  0  0  0  0  0  0  0  0  0  0
    3.2548   -9.9919   17.4189 C   0  0  0  0  0  0  0  0  0  0  0  0
   12.4767   -4.7393   22.1790 C   0  0  0  0  0  0  0  0  0  0  0  0
    7.8593   -5.3772   15.3569 N   0  0  0  0  0  0  0  0  0  0  0  0
    7.4412   -6.9038   16.9283 C   0  0  0  0  0  0  0  0  0  0  0  0
  1 21  4  0
  1 23  4  0
  2  5  1  0
  2 13  4  0
  2 16  4  0
  3  6  4  0
  3  7  4  0
  4 13  4  0
  4 19  4  0
  4 24  4  0
  6 23  4  0
  7 16  1  0
  7 21  4  0
  8 18  1  0
  9 20  4  0
  9 22  4  0
 10 17  1  0
 10 25  1  0
 11 16  4  0
 11 19  4  0
 12 15  4  0
 12 22  4  0
 14 24  4  0
 14 25  4  0
 15 17  4  0
 17 20  4  0
 18 23  1  0
 19 25  4  0
M  END
$$$$

 Created by Python create_sdf_string function

 25 28  0  0  0  0  0  0  0  0999 V2000
   13.1533   -5.2399   21.0682 C   0  0  0  0  0  0  0  0  0  0  0  0
   10.4729   -4.0295   17.6135 C   0  0  0  0  0  0  0  0  0  0  0  0
   10.4789   -4.3641   20.9564 C   0  0  0  0  0  0  0  0  0  0  0  0
    8.7421   -5.1412   16.3650 C   0  0  0  0  0  0  0  0  0  0  0  0
   11.4353   -2.9204   17.8044 C   0  0  0  0  0  0  0  0  0  0  0  0
   11.1529   -4.3028   22.1277 C   0  0  0  0  0  0  0  0  0  0  0  0
   11.1290   -4.8502   19.8052 C   0  0  0  0  0  0  0  0  0  0  0  0
   12.4329   -4.2159   24.4224 C   0  0  0  0  0  0  0  0  0  0  0  0
    3.4740   -9.0387   16.5022 C   0  0  0  0  0  0  0  0  0  0  0  0
    6.8384   -7.9290   17.5282 N   0  0  0  0  0  0  0  0  0  0  0  0
    9.4126   -5.9853   18.4899 C   0  0  0  0  0  0  0  0  0  0  0  0
    4.2064  -10.3242   18.3302 C   0  0  0  0  0  0  0  0  0  0  0  0
    9.6599   -4.1551   16.4796 N   0  0  0  0  0  0  0  0  0  0  0  0
    7.0644   -6.4612   15.7375 N   0  0  0  0  0  0  0  0  0  0  0  0
    5.3549   -9.6322   18.3190 C   0  0  0  0  0  0  0  0  0  0  0  0
   10.3704   -4.9638   18.6510 C   0  0  0  0  0  0  0  0  0  0  0  0
    5.5935   -8.6419   17.4234 C   0  0  0  0  0  0  0  0  0  0  0  0
   13.0726   -4.6648   23.3394 O   0  0  0  0  0  0  0  0  0  0  0  0
    8.5955   -6.0705   17.3996 C   0  0  0  0  0  0  0  0  0  0  0  0
    4.6223   -8.3832   16.5030 C   0  0  0  0  0  0  0  0  0  0  0  0
   12.4690   -5.2624   19.9024 C   0  0  0  0  0  0  0  0  0  0  0  0
    3.2548   -9.9919   17.4189 C   0  0  0  0  0  0  0  0  0  0  0  0
   12.4767   -4.7393   22.1790 C   0  0  0  0  0  0  0  0  0  0  0  0
    7.8593   -5.3772   15.3569 N   0  0  0  0  0  0  0  0  0  0  0  0
    7.4412   -6.9038   16.9283 C   0  0  0  0  0  0  0  0  0  0  0  0
  1 21  4  0
  1 23  4  0
  2  5  1  0
  2 13  4  0
  2 16  4  0
  3  6  4  0
  3  7  4  0
  4 13  4  0
  4 19  4  0
  4 24  4  0
  6 23  4  0
  7 16  1  0
  7 21  4  0
  8 18  1  0
  9 20  4  0
  9 22  4  0
 10 17  1  0
 10 25  1  0
 11 16  4  0
 11 19  4  0
 12 15  4  0
 12 22  4  0
 14 24  4  0
 14 25  4  0
 15 17  4  0
 17 20  4  0
 18 23  1  0
 19 25  4  0
M  END
$$$$

 Created by Python create_sdf_string function

 25 28  0  0  0  0  0  0  0  0999 V2000
   13.1533   -5.2399   21.0682 C   0  0  0  0  0  0  0  0  0  0  0  0
   10.4729   -4.0295   17.6135 C   0  0  0  0  0  0  0  0  0  0  0  0
   10.4789   -4.3641   20.9564 C   0  0  0  0  0  0  0  0  0  0  0  0
    8.7421   -5.1412   16.3650 C   0  0  0  0  0  0  0  0  0  0  0  0
   11.4353   -2.9204   17.8044 C   0  0  0  0  0  0  0  0  0  0  0  0
   11.1529   -4.3028   22.1277 C   0  0  0  0  0  0  0  0  0  0  0  0
   11.1290   -4.8502   19.8052 C   0  0  0  0  0  0  0  0  0  0  0  0
   12.4329   -4.2159   24.4224 C   0  0  0  0  0  0  0  0  0  0  0  0
    3.4740   -9.0387   16.5022 C   0  0  0  0  0  0  0  0  0  0  0  0
    6.8384   -7.9290   17.5282 N   0  0  0  0  0  0  0  0  0  0  0  0
    9.4126   -5.9853   18.4899 C   0  0  0  0  0  0  0  0  0  0  0  0
    4.2064  -10.3242   18.3302 C   0  0  0  0  0  0  0  0  0  0  0  0
    9.6599   -4.1551   16.4796 N   0  0  0  0  0  0  0  0  0  0  0  0
    7.0644   -6.4612   15.7375 N   0  0  0  0  0  0  0  0  0  0  0  0
    5.3549   -9.6322   18.3190 C   0  0  0  0  0  0  0  0  0  0  0  0
   10.3704   -4.9638   18.6510 C   0  0  0  0  0  0  0  0  0  0  0  0
    5.5935   -8.6419   17.4234 C   0  0  0  0  0  0  0  0  0  0  0  0
   13.0726   -4.6648   23.3394 O   0  0  0  0  0  0  0  0  0  0  0  0
    8.5955   -6.0705   17.3996 C   0  0  0  0  0  0  0  0  0  0  0  0
    4.6223   -8.3832   16.5030 C   0  0  0  0  0  0  0  0  0  0  0  0
   12.4690   -5.2624   19.9024 C   0  0  0  0  0  0  0  0  0  0  0  0
    3.2548   -9.9919   17.4189 C   0  0  0  0  0  0  0  0  0  0  0  0
   12.4767   -4.7393   22.1790 C   0  0  0  0  0  0  0  0  0  0  0  0
    7.8593   -5.3772   15.3569 N   0  0  0  0  0  0  0  0  0  0  0  0
    7.4412   -6.9038   16.9283 C   0  0  0  0  0  0  0  0  0  0  0  0
  1 21  4  0
  1 23  4  0
  2  5  1  0
  2 13  4  0
  2 16  4  0
  3  6  4  0
  3  7  4  0
  4 13  4  0
  4 19  4  0
  4 24  4  0
  6 23  4  0
  7 16  1  0
  7 21  4  0
  8 18  1  0
  9 20  4  0
  9 22  4  0
 10 17  1  0
 10 25  1  0
 11 16  4  0
 11 19  4  0
 12 15  4  0
 12 22  4  0
 14 24  4  0
 14 25  4  0
 15 17  4  0
 17 20  4  0
 18 23  1  0
 19 25  4  0
M  END
$$$$

 Created by Python create_sdf_string function

 25 28  0  0  0  0  0  0  0  0999 V2000
   13.1533   -5.2399   21.0682 C   0  0  0  0  0  0  0  0  0  0  0  0
   10.4729   -4.0295   17.6135 C   0  0  0  0  0  0  0  0  0  0  0  0
   10.4789   -4.3641   20.9564 C   0  0  0  0  0  0  0  0  0  0  0  0
    8.7421   -5.1412   16.3650 C   0  0  0  0  0  0  0  0  0  0  0  0
   11.4353   -2.9204   17.8044 C   0  0  0  0  0  0  0  0  0  0  0  0
   11.1529   -4.3028   22.1277 C   0  0  0  0  0  0  0  0  0  0  0  0
   11.1290   -4.8502   19.8052 C   0  0  0  0  0  0  0  0  0  0  0  0
   12.4329   -4.2159   24.4224 C   0  0  0  0  0  0  0  0  0  0  0  0
    3.4740   -9.0387   16.5022 C   0  0  0  0  0  0  0  0  0  0  0  0
    6.8384   -7.9290   17.5282 N   0  0  0  0  0  0  0  0  0  0  0  0
    9.4126   -5.9853   18.4899 C   0  0  0  0  0  0  0  0  0  0  0  0
    4.2064  -10.3242   18.3302 C   0  0  0  0  0  0  0  0  0  0  0  0
    9.6599   -4.1551   16.4796 N   0  0  0  0  0  0  0  0  0  0  0  0
    7.0644   -6.4612   15.7375 N   0  0  0  0  0  0  0  0  0  0  0  0
    5.3549   -9.6322   18.3190 C   0  0  0  0  0  0  0  0  0  0  0  0
   10.3704   -4.9638   18.6510 C   0  0  0  0  0  0  0  0  0  0  0  0
    5.5935   -8.6419   17.4234 C   0  0  0  0  0  0  0  0  0  0  0  0
   13.0726   -4.6648   23.3394 O   0  0  0  0  0  0  0  0  0  0  0  0
    8.5955   -6.0705   17.3996 C   0  0  0  0  0  0  0  0  0  0  0  0
    4.6223   -8.3832   16.5030 C   0  0  0  0  0  0  0  0  0  0  0  0
   12.4690   -5.2624   19.9024 C   0  0  0  0  0  0  0  0  0  0  0  0
    3.2548   -9.9919   17.4189 C   0  0  0  0  0  0  0  0  0  0  0  0
   12.4767   -4.7393   22.1790 C   0  0  0  0  0  0  0  0  0  0  0  0
    7.8593   -5.3772   15.3569 N   0  0  0  0  0  0  0  0  0  0  0  0
    7.4412   -6.9038   16.9283 C   0  0  0  0  0  0  0  0  0  0  0  0
  1 21  4  0
  1 23  4  0
  2  5  1  0
  2 13  4  0
  2 16  4  0
  3  6  4  0
  3  7  4  0
  4 13  4  0
  4 19  4  0
  4 24  4  0
  6 23  4  0
  7 16  1  0
  7 21  4  0
  8 18  1  0
  9 20  4  0
  9 22  4  0
 10 17  1  0
 10 25  1  0
 11 16  4  0
 11 19  4  0
 12 15  4  0
 12 22  4  0
 14 24  4  0
 14 25  4  0
 15 17  4  0
 17 20  4  0
 18 23  1  0
 19 25  4  0
M  END
$$$$

 Created by Python create_sdf_string function

 25 28  0  0  0  0  0  0  0  0999 V2000
   13.1533   -5.2399   21.0682 C   0  0  0  0  0  0  0  0  0  0  0  0
   10.4729   -4.0295   17.6135 C   0  0  0  0  0  0  0  0  0  0  0  0
   10.4789   -4.3641   20.9564 C   0  0  0  0  0  0  0  0  0  0  0  0
    8.7421   -5.1412   16.3650 C   0  0  0  0  0  0  0  0  0  0  0  0
   11.4353   -2.9204   17.8044 C   0  0  0  0  0  0  0  0  0  0  0  0
   11.1529   -4.3028   22.1277 C   0  0  0  0  0  0  0  0  0  0  0  0
   11.1290   -4.8502   19.8052 C   0  0  0  0  0  0  0  0  0  0  0  0
   12.4329   -4.2159   24.4224 C   0  0  0  0  0  0  0  0  0  0  0  0
    3.4740   -9.0387   16.5022 C   0  0  0  0  0  0  0  0  0  0  0  0
    6.8384   -7.9290   17.5282 N   0  0  0  0  0  0  0  0  0  0  0  0
    9.4126   -5.9853   18.4899 C   0  0  0  0  0  0  0  0  0  0  0  0
    4.2064  -10.3242   18.3302 C   0  0  0  0  0  0  0  0  0  0  0  0
    9.6599   -4.1551   16.4796 N   0  0  0  0  0  0  0  0  0  0  0  0
    7.0644   -6.4612   15.7375 N   0  0  0  0  0  0  0  0  0  0  0  0
    5.3549   -9.6322   18.3190 C   0  0  0  0  0  0  0  0  0  0  0  0
   10.3704   -4.9638   18.6510 C   0  0  0  0  0  0  0  0  0  0  0  0
    5.5935   -8.6419   17.4234 C   0  0  0  0  0  0  0  0  0  0  0  0
   13.0726   -4.6648   23.3394 O   0  0  0  0  0  0  0  0  0  0  0  0
    8.5955   -6.0705   17.3996 C   0  0  0  0  0  0  0  0  0  0  0  0
    4.6223   -8.3832   16.5030 C   0  0  0  0  0  0  0  0  0  0  0  0
   12.4690   -5.2624   19.9024 C   0  0  0  0  0  0  0  0  0  0  0  0
    3.2548   -9.9919   17.4189 C   0  0  0  0  0  0  0  0  0  0  0  0
   12.4767   -4.7393   22.1790 C   0  0  0  0  0  0  0  0  0  0  0  0
    7.8593   -5.3772   15.3569 N   0  0  0  0  0  0  0  0  0  0  0  0
    7.4412   -6.9038   16.9283 C   0  0  0  0  0  0  0  0  0  0  0  0
  1 21  4  0
  1 23  4  0
  2  5  1  0
  2 13  4  0
  2 16  4  0
  3  6  4  0
  3  7  4  0
  4 13  4  0
  4 19  4  0
  4 24  4  0
  6 23  4  0
  7 16  1  0
  7 21  4  0
  8 18  1  0
  9 20  4  0
  9 22  4  0
 10 17  1  0
 10 25  1  0
 11 16  4  0
 11 19  4  0
 12 15  4  0
 12 22  4  0
 14 24  4  0
 14 25  4  0
 15 17  4  0
 17 20  4  0
 18 23  1  0
 19 25  4  0
M  END
$$$$

 Created by Python create_sdf_string function

 25 28  0  0  0  0  0  0  0  0999 V2000
   13.1533   -5.2399   21.0682 C   0  0  0  0  0  0  0  0  0  0  0  0
   10.4729   -4.0295   17.6135 C   0  0  0  0  0  0  0  0  0  0  0  0
   10.4789   -4.3641   20.9564 C   0  0  0  0  0  0  0  0  0  0  0  0
    8.7421   -5.1412   16.3650 C   0  0  0  0  0  0  0  0  0  0  0  0
   11.4353   -2.9204   17.8044 C   0  0  0  0  0  0  0  0  0  0  0  0
   11.1529   -4.3028   22.1277 C   0  0  0  0  0  0  0  0  0  0  0  0
   11.1290   -4.8502   19.8052 C   0  0  0  0  0  0  0  0  0  0  0  0
   12.4329   -4.2159   24.4224 C   0  0  0  0  0  0  0  0  0  0  0  0
    3.4740   -9.0387   16.5022 C   0  0  0  0  0  0  0  0  0  0  0  0
    6.8384   -7.9290   17.5282 N   0  0  0  0  0  0  0  0  0  0  0  0
    9.4126   -5.9853   18.4899 C   0  0  0  0  0  0  0  0  0  0  0  0
    4.2064  -10.3242   18.3302 C   0  0  0  0  0  0  0  0  0  0  0  0
    9.6599   -4.1551   16.4796 N   0  0  0  0  0  0  0  0  0  0  0  0
    7.0644   -6.4612   15.7375 N   0  0  0  0  0  0  0  0  0  0  0  0
    5.3549   -9.6322   18.3190 C   0  0  0  0  0  0  0  0  0  0  0  0
   10.3704   -4.9638   18.6510 C   0  0  0  0  0  0  0  0  0  0  0  0
    5.5935   -8.6419   17.4234 C   0  0  0  0  0  0  0  0  0  0  0  0
   13.0726   -4.6648   23.3394 O   0  0  0  0  0  0  0  0  0  0  0  0
    8.5955   -6.0705   17.3996 C   0  0  0  0  0  0  0  0  0  0  0  0
    4.6223   -8.3832   16.5030 C   0  0  0  0  0  0  0  0  0  0  0  0
   12.4690   -5.2624   19.9024 C   0  0  0  0  0  0  0  0  0  0  0  0
    3.2548   -9.9919   17.4189 C   0  0  0  0  0  0  0  0  0  0  0  0
   12.4767   -4.7393   22.1790 C   0  0  0  0  0  0  0  0  0  0  0  0
    7.8593   -5.3772   15.3569 N   0  0  0  0  0  0  0  0  0  0  0  0
    7.4412   -6.9038   16.9283 C   0  0  0  0  0  0  0  0  0  0  0  0
  1 21  4  0
  1 23  4  0
  2  5  1  0
  2 13  4  0
  2 16  4  0
  3  6  4  0
  3  7  4  0
  4 13  4  0
  4 19  4  0
  4 24  4  0
  6 23  4  0
  7 16  1  0
  7 21  4  0
  8 18  1  0
  9 20  4  0
  9 22  4  0
 10 17  1  0
 10 25  1  0
 11 16  4  0
 11 19  4  0
 12 15  4  0
 12 22  4  0
 14 24  4  0
 14 25  4  0
 15 17  4  0
 17 20  4  0
 18 23  1  0
 19 25  4  0
M  END
$$$$

 Created by Python create_sdf_string function

 25 28  0  0  0  0  0  0  0  0999 V2000
   13.1533   -5.2399   21.0682 C   0  0  0  0  0  0  0  0  0  0  0  0
   10.4729   -4.0295   17.6135 C   0  0  0  0  0  0  0  0  0  0  0  0
   10.4789   -4.3641   20.9564 C   0  0  0  0  0  0  0  0  0  0  0  0
    8.7421   -5.1412   16.3650 C   0  0  0  0  0  0  0  0  0  0  0  0
   11.4353   -2.9204   17.8044 C   0  0  0  0  0  0  0  0  0  0  0  0
   11.1529   -4.3028   22.1277 C   0  0  0  0  0  0  0  0  0  0  0  0
   11.1290   -4.8502   19.8052 C   0  0  0  0  0  0  0  0  0  0  0  0
   12.4329   -4.2159   24.4224 C   0  0  0  0  0  0  0  0  0  0  0  0
    3.4740   -9.0387   16.5022 C   0  0  0  0  0  0  0  0  0  0  0  0
    6.8384   -7.9290   17.5282 N   0  0  0  0  0  0  0  0  0  0  0  0
    9.4126   -5.9853   18.4899 C   0  0  0  0  0  0  0  0  0  0  0  0
    4.2064  -10.3242   18.3302 C   0  0  0  0  0  0  0  0  0  0  0  0
    9.6599   -4.1551   16.4796 N   0  0  0  0  0  0  0  0  0  0  0  0
    7.0644   -6.4612   15.7375 N   0  0  0  0  0  0  0  0  0  0  0  0
    5.3549   -9.6322   18.3190 C   0  0  0  0  0  0  0  0  0  0  0  0
   10.3704   -4.9638   18.6510 C   0  0  0  0  0  0  0  0  0  0  0  0
    5.5935   -8.6419   17.4234 C   0  0  0  0  0  0  0  0  0  0  0  0
   13.0726   -4.6648   23.3394 O   0  0  0  0  0  0  0  0  0  0  0  0
    8.5955   -6.0705   17.3996 C   0  0  0  0  0  0  0  0  0  0  0  0
    4.6223   -8.3832   16.5030 C   0  0  0  0  0  0  0  0  0  0  0  0
   12.4690   -5.2624   19.9024 C   0  0  0  0  0  0  0  0  0  0  0  0
    3.2548   -9.9919   17.4189 C   0  0  0  0  0  0  0  0  0  0  0  0
   12.4767   -4.7393   22.1790 C   0  0  0  0  0  0  0  0  0  0  0  0
    7.8593   -5.3772   15.3569 N   0  0  0  0  0  0  0  0  0  0  0  0
    7.4412   -6.9038   16.9283 C   0  0  0  0  0  0  0  0  0  0  0  0
  1 21  4  0
  1 23  4  0
  2  5  1  0
  2 13  4  0
  2 16  4  0
  3  6  4  0
  3  7  4  0
  4 13  4  0
  4 19  4  0
  4 24  4  0
  6 23  4  0
  7 16  1  0
  7 21  4  0
  8 18  1  0
  9 20  4  0
  9 22  4  0
 10 17  1  0
 10 25  1  0
 11 16  4  0
 11 19  4  0
 12 15  4  0
 12 22  4  0
 14 24  4  0
 14 25  4  0
 15 17  4  0
 17 20  4  0
 18 23  1  0
 19 25  4  0
M  END
$$$$

 Created by Python create_sdf_string function

 25 28  0  0  0  0  0  0  0  0999 V2000
   13.1533   -5.2399   21.0682 C   0  0  0  0  0  0  0  0  0  0  0  0
   10.4729   -4.0295   17.6135 C   0  0  0  0  0  0  0  0  0  0  0  0
   10.4789   -4.3641   20.9564 C   0  0  0  0  0  0  0  0  0  0  0  0
    8.7421   -5.1412   16.3650 C   0  0  0  0  0  0  0  0  0  0  0  0
   11.4353   -2.9204   17.8044 C   0  0  0  0  0  0  0  0  0  0  0  0
   11.1529   -4.3028   22.1277 C   0  0  0  0  0  0  0  0  0  0  0  0
   11.1290   -4.8502   19.8052 C   0  0  0  0  0  0  0  0  0  0  0  0
   12.4329   -4.2159   24.4224 C   0  0  0  0  0  0  0  0  0  0  0  0
    3.4740   -9.0387   16.5022 C   0  0  0  0  0  0  0  0  0  0  0  0
    6.8384   -7.9290   17.5282 N   0  0  0  0  0  0  0  0  0  0  0  0
    9.4126   -5.9853   18.4899 C   0  0  0  0  0  0  0  0  0  0  0  0
    4.2064  -10.3242   18.3302 C   0  0  0  0  0  0  0  0  0  0  0  0
    9.6599   -4.1551   16.4796 N   0  0  0  0  0  0  0  0  0  0  0  0
    7.0644   -6.4612   15.7375 N   0  0  0  0  0  0  0  0  0  0  0  0
    5.3549   -9.6322   18.3190 C   0  0  0  0  0  0  0  0  0  0  0  0
   10.3704   -4.9638   18.6510 C   0  0  0  0  0  0  0  0  0  0  0  0
    5.5935   -8.6419   17.4234 C   0  0  0  0  0  0  0  0  0  0  0  0
   13.0726   -4.6648   23.3394 O   0  0  0  0  0  0  0  0  0  0  0  0
    8.5955   -6.0705   17.3996 C   0  0  0  0  0  0  0  0  0  0  0  0
    4.6223   -8.3832   16.5030 C   0  0  0  0  0  0  0  0  0  0  0  0
   12.4690   -5.2624   19.9024 C   0  0  0  0  0  0  0  0  0  0  0  0
    3.2548   -9.9919   17.4189 C   0  0  0  0  0  0  0  0  0  0  0  0
   12.4767   -4.7393   22.1790 C   0  0  0  0  0  0  0  0  0  0  0  0
    7.8593   -5.3772   15.3569 N   0  0  0  0  0  0  0  0  0  0  0  0
    7.4412   -6.9038   16.9283 C   0  0  0  0  0  0  0  0  0  0  0  0
  1 21  4  0
  1 23  4  0
  2  5  1  0
  2 13  4  0
  2 16  4  0
  3  6  4  0
  3  7  4  0
  4 13  4  0
  4 19  4  0
  4 24  4  0
  6 23  4  0
  7 16  1  0
  7 21  4  0
  8 18  1  0
  9 20  4  0
  9 22  4  0
 10 17  1  0
 10 25  1  0
 11 16  4  0
 11 19  4  0
 12 15  4  0
 12 22  4  0
 14 24  4  0
 14 25  4  0
 15 17  4  0
 17 20  4  0
 18 23  1  0
 19 25  4  0
M  END
$$$$

 Created by Python create_sdf_string function

 25 28  0  0  0  0  0  0  0  0999 V2000
   13.1533   -5.2399   21.0682 C   0  0  0  0  0  0  0  0  0  0  0  0
   10.4729   -4.0295   17.6135 C   0  0  0  0  0  0  0  0  0  0  0  0
   10.4789   -4.3641   20.9564 C   0  0  0  0  0  0  0  0  0  0  0  0
    8.7421   -5.1412   16.3650 C   0  0  0  0  0  0  0  0  0  0  0  0
   11.4353   -2.9204   17.8044 C   0  0  0  0  0  0  0  0  0  0  0  0
   11.1529   -4.3028   22.1277 C   0  0  0  0  0  0  0  0  0  0  0  0
   11.1290   -4.8502   19.8052 C   0  0  0  0  0  0  0  0  0  0  0  0
   12.4329   -4.2159   24.4224 C   0  0  0  0  0  0  0  0  0  0  0  0
    3.4740   -9.0387   16.5022 C   0  0  0  0  0  0  0  0  0  0  0  0
    6.8384   -7.9290   17.5282 N   0  0  0  0  0  0  0  0  0  0  0  0
    9.4126   -5.9853   18.4899 C   0  0  0  0  0  0  0  0  0  0  0  0
    4.2064  -10.3242   18.3302 C   0  0  0  0  0  0  0  0  0  0  0  0
    9.6599   -4.1551   16.4796 N   0  0  0  0  0  0  0  0  0  0  0  0
    7.0644   -6.4612   15.7375 N   0  0  0  0  0  0  0  0  0  0  0  0
    5.3549   -9.6322   18.3190 C   0  0  0  0  0  0  0  0  0  0  0  0
   10.3704   -4.9638   18.6510 C   0  0  0  0  0  0  0  0  0  0  0  0
    5.5935   -8.6419   17.4234 C   0  0  0  0  0  0  0  0  0  0  0  0
   13.0726   -4.6648   23.3394 O   0  0  0  0  0  0  0  0  0  0  0  0
    8.5955   -6.0705   17.3996 C   0  0  0  0  0  0  0  0  0  0  0  0
    4.6223   -8.3832   16.5030 C   0  0  0  0  0  0  0  0  0  0  0  0
   12.4690   -5.2624   19.9024 C   0  0  0  0  0  0  0  0  0  0  0  0
    3.2548   -9.9919   17.4189 C   0  0  0  0  0  0  0  0  0  0  0  0
   12.4767   -4.7393   22.1790 C   0  0  0  0  0  0  0  0  0  0  0  0
    7.8593   -5.3772   15.3569 N   0  0  0  0  0  0  0  0  0  0  0  0
    7.4412   -6.9038   16.9283 C   0  0  0  0  0  0  0  0  0  0  0  0
  1 21  4  0
  1 23  4  0
  2  5  1  0
  2 13  4  0
  2 16  4  0
  3  6  4  0
  3  7  4  0
  4 13  4  0
  4 19  4  0
  4 24  4  0
  6 23  4  0
  7 16  1  0
  7 21  4  0
  8 18  1  0
  9 20  4  0
  9 22  4  0
 10 17  1  0
 10 25  1  0
 11 16  4  0
 11 19  4  0
 12 15  4  0
 12 22  4  0
 14 24  4  0
 14 25  4  0
 15 17  4  0
 17 20  4  0
 18 23  1  0
 19 25  4  0
M  END
$$$$

 Created by Python create_sdf_string function

 25 28  0  0  0  0  0  0  0  0999 V2000
   13.1533   -5.2399   21.0682 C   0  0  0  0  0  0  0  0  0  0  0  0
   10.4729   -4.0295   17.6135 C   0  0  0  0  0  0  0  0  0  0  0  0
   10.4789   -4.3641   20.9564 C   0  0  0  0  0  0  0  0  0  0  0  0
    8.7421   -5.1412   16.3650 C   0  0  0  0  0  0  0  0  0  0  0  0
   11.4353   -2.9204   17.8044 C   0  0  0  0  0  0  0  0  0  0  0  0
   11.1529   -4.3028   22.1277 C   0  0  0  0  0  0  0  0  0  0  0  0
   11.1290   -4.8502   19.8052 C   0  0  0  0  0  0  0  0  0  0  0  0
   12.4329   -4.2159   24.4224 C   0  0  0  0  0  0  0  0  0  0  0  0
    3.4740   -9.0387   16.5022 C   0  0  0  0  0  0  0  0  0  0  0  0
    6.8384   -7.9290   17.5282 N   0  0  0  0  0  0  0  0  0  0  0  0
    9.4126   -5.9853   18.4899 C   0  0  0  0  0  0  0  0  0  0  0  0
    4.2064  -10.3242   18.3302 C   0  0  0  0  0  0  0  0  0  0  0  0
    9.6599   -4.1551   16.4796 N   0  0  0  0  0  0  0  0  0  0  0  0
    7.0644   -6.4612   15.7375 N   0  0  0  0  0  0  0  0  0  0  0  0
    5.3549   -9.6322   18.3190 C   0  0  0  0  0  0  0  0  0  0  0  0
   10.3704   -4.9638   18.6510 C   0  0  0  0  0  0  0  0  0  0  0  0
    5.5935   -8.6419   17.4234 C   0  0  0  0  0  0  0  0  0  0  0  0
   13.0726   -4.6648   23.3394 O   0  0  0  0  0  0  0  0  0  0  0  0
    8.5955   -6.0705   17.3996 C   0  0  0  0  0  0  0  0  0  0  0  0
    4.6223   -8.3832   16.5030 C   0  0  0  0  0  0  0  0  0  0  0  0
   12.4690   -5.2624   19.9024 C   0  0  0  0  0  0  0  0  0  0  0  0
    3.2548   -9.9919   17.4189 C   0  0  0  0  0  0  0  0  0  0  0  0
   12.4767   -4.7393   22.1790 C   0  0  0  0  0  0  0  0  0  0  0  0
    7.8593   -5.3772   15.3569 N   0  0  0  0  0  0  0  0  0  0  0  0
    7.4412   -6.9038   16.9283 C   0  0  0  0  0  0  0  0  0  0  0  0
  1 21  4  0
  1 23  4  0
  2  5  1  0
  2 13  4  0
  2 16  4  0
  3  6  4  0
  3  7  4  0
  4 13  4  0
  4 19  4  0
  4 24  4  0
  6 23  4  0
  7 16  1  0
  7 21  4  0
  8 18  1  0
  9 20  4  0
  9 22  4  0
 10 17  1  0
 10 25  1  0
 11 16  4  0
 11 19  4  0
 12 15  4  0
 12 22  4  0
 14 24  4  0
 14 25  4  0
 15 17  4  0
 17 20  4  0
 18 23  1  0
 19 25  4  0
M  END
$$$$

 Created by Python create_sdf_string function

 25 28  0  0  0  0  0  0  0  0999 V2000
   13.1533   -5.2399   21.0682 C   0  0  0  0  0  0  0  0  0  0  0  0
   10.4729   -4.0295   17.6135 C   0  0  0  0  0  0  0  0  0  0  0  0
   10.4789   -4.3641   20.9564 C   0  0  0  0  0  0  0  0  0  0  0  0
    8.7421   -5.1412   16.3650 C   0  0  0  0  0  0  0  0  0  0  0  0
   11.4353   -2.9204   17.8044 C   0  0  0  0  0  0  0  0  0  0  0  0
   11.1529   -4.3028   22.1277 C   0  0  0  0  0  0  0  0  0  0  0  0
   11.1290   -4.8502   19.8052 C   0  0  0  0  0  0  0  0  0  0  0  0
   12.4329   -4.2159   24.4224 C   0  0  0  0  0  0  0  0  0  0  0  0
    3.4740   -9.0387   16.5022 C   0  0  0  0  0  0  0  0  0  0  0  0
    6.8384   -7.9290   17.5282 N   0  0  0  0  0  0  0  0  0  0  0  0
    9.4126   -5.9853   18.4899 C   0  0  0  0  0  0  0  0  0  0  0  0
    4.2064  -10.3242   18.3302 C   0  0  0  0  0  0  0  0  0  0  0  0
    9.6599   -4.1551   16.4796 N   0  0  0  0  0  0  0  0  0  0  0  0
    7.0644   -6.4612   15.7375 N   0  0  0  0  0  0  0  0  0  0  0  0
    5.3549   -9.6322   18.3190 C   0  0  0  0  0  0  0  0  0  0  0  0
   10.3704   -4.9638   18.6510 C   0  0  0  0  0  0  0  0  0  0  0  0
    5.5935   -8.6419   17.4234 C   0  0  0  0  0  0  0  0  0  0  0  0
   13.0726   -4.6648   23.3394 O   0  0  0  0  0  0  0  0  0  0  0  0
    8.5955   -6.0705   17.3996 C   0  0  0  0  0  0  0  0  0  0  0  0
    4.6223   -8.3832   16.5030 C   0  0  0  0  0  0  0  0  0  0  0  0
   12.4690   -5.2624   19.9024 C   0  0  0  0  0  0  0  0  0  0  0  0
    3.2548   -9.9919   17.4189 C   0  0  0  0  0  0  0  0  0  0  0  0
   12.4767   -4.7393   22.1790 C   0  0  0  0  0  0  0  0  0  0  0  0
    7.8593   -5.3772   15.3569 N   0  0  0  0  0  0  0  0  0  0  0  0
    7.4412   -6.9038   16.9283 C   0  0  0  0  0  0  0  0  0  0  0  0
  1 21  4  0
  1 23  4  0
  2  5  1  0
  2 13  4  0
  2 16  4  0
  3  6  4  0
  3  7  4  0
  4 13  4  0
  4 19  4  0
  4 24  4  0
  6 23  4  0
  7 16  1  0
  7 21  4  0
  8 18  1  0
  9 20  4  0
  9 22  4  0
 10 17  1  0
 10 25  1  0
 11 16  4  0
 11 19  4  0
 12 15  4  0
 12 22  4  0
 14 24  4  0
 14 25  4  0
 15 17  4  0
 17 20  4  0
 18 23  1  0
 19 25  4  0
M  END
$$$$

 Created by Python create_sdf_string function

 25 28  0  0  0  0  0  0  0  0999 V2000
   13.1533   -5.2399   21.0682 C   0  0  0  0  0  0  0  0  0  0  0  0
   10.4729   -4.0295   17.6135 C   0  0  0  0  0  0  0  0  0  0  0  0
   10.4789   -4.3641   20.9564 C   0  0  0  0  0  0  0  0  0  0  0  0
    8.7421   -5.1412   16.3650 C   0  0  0  0  0  0  0  0  0  0  0  0
   11.4353   -2.9204   17.8044 C   0  0  0  0  0  0  0  0  0  0  0  0
   11.1529   -4.3028   22.1277 C   0  0  0  0  0  0  0  0  0  0  0  0
   11.1290   -4.8502   19.8052 C   0  0  0  0  0  0  0  0  0  0  0  0
   12.4329   -4.2159   24.4224 C   0  0  0  0  0  0  0  0  0  0  0  0
    3.4740   -9.0387   16.5022 C   0  0  0  0  0  0  0  0  0  0  0  0
    6.8384   -7.9290   17.5282 N   0  0  0  0  0  0  0  0  0  0  0  0
    9.4126   -5.9853   18.4899 C   0  0  0  0  0  0  0  0  0  0  0  0
    4.2064  -10.3242   18.3302 C   0  0  0  0  0  0  0  0  0  0  0  0
    9.6599   -4.1551   16.4796 N   0  0  0  0  0  0  0  0  0  0  0  0
    7.0644   -6.4612   15.7375 N   0  0  0  0  0  0  0  0  0  0  0  0
    5.3549   -9.6322   18.3190 C   0  0  0  0  0  0  0  0  0  0  0  0
   10.3704   -4.9638   18.6510 C   0  0  0  0  0  0  0  0  0  0  0  0
    5.5935   -8.6419   17.4234 C   0  0  0  0  0  0  0  0  0  0  0  0
   13.0726   -4.6648   23.3394 O   0  0  0  0  0  0  0  0  0  0  0  0
    8.5955   -6.0705   17.3996 C   0  0  0  0  0  0  0  0  0  0  0  0
    4.6223   -8.3832   16.5030 C   0  0  0  0  0  0  0  0  0  0  0  0
   12.4690   -5.2624   19.9024 C   0  0  0  0  0  0  0  0  0  0  0  0
    3.2548   -9.9919   17.4189 C   0  0  0  0  0  0  0  0  0  0  0  0
   12.4767   -4.7393   22.1790 C   0  0  0  0  0  0  0  0  0  0  0  0
    7.8593   -5.3772   15.3569 N   0  0  0  0  0  0  0  0  0  0  0  0
    7.4412   -6.9038   16.9283 C   0  0  0  0  0  0  0  0  0  0  0  0
  1 21  4  0
  1 23  4  0
  2  5  1  0
  2 13  4  0
  2 16  4  0
  3  6  4  0
  3  7  4  0
  4 13  4  0
  4 19  4  0
  4 24  4  0
  6 23  4  0
  7 16  1  0
  7 21  4  0
  8 18  1  0
  9 20  4  0
  9 22  4  0
 10 17  1  0
 10 25  1  0
 11 16  4  0
 11 19  4  0
 12 15  4  0
 12 22  4  0
 14 24  4  0
 14 25  4  0
 15 17  4  0
 17 20  4  0
 18 23  1  0
 19 25  4  0
M  END
$$$$

 Created by Python create_sdf_string function

 25 28  0  0  0  0  0  0  0  0999 V2000
   13.1533   -5.2399   21.0682 C   0  0  0  0  0  0  0  0  0  0  0  0
   10.4729   -4.0295   17.6135 C   0  0  0  0  0  0  0  0  0  0  0  0
   10.4789   -4.3641   20.9564 C   0  0  0  0  0  0  0  0  0  0  0  0
    8.7421   -5.1412   16.3650 C   0  0  0  0  0  0  0  0  0  0  0  0
   11.4353   -2.9204   17.8044 C   0  0  0  0  0  0  0  0  0  0  0  0
   11.1529   -4.3028   22.1277 C   0  0  0  0  0  0  0  0  0  0  0  0
   11.1290   -4.8502   19.8052 C   0  0  0  0  0  0  0  0  0  0  0  0
   12.4329   -4.2159   24.4224 C   0  0  0  0  0  0  0  0  0  0  0  0
    3.4740   -9.0387   16.5022 C   0  0  0  0  0  0  0  0  0  0  0  0
    6.8384   -7.9290   17.5282 N   0  0  0  0  0  0  0  0  0  0  0  0
    9.4126   -5.9853   18.4899 C   0  0  0  0  0  0  0  0  0  0  0  0
    4.2064  -10.3242   18.3302 C   0  0  0  0  0  0  0  0  0  0  0  0
    9.6599   -4.1551   16.4796 N   0  0  0  0  0  0  0  0  0  0  0  0
    7.0644   -6.4612   15.7375 N   0  0  0  0  0  0  0  0  0  0  0  0
    5.3549   -9.6322   18.3190 C   0  0  0  0  0  0  0  0  0  0  0  0
   10.3704   -4.9638   18.6510 C   0  0  0  0  0  0  0  0  0  0  0  0
    5.5935   -8.6419   17.4234 C   0  0  0  0  0  0  0  0  0  0  0  0
   13.0726   -4.6648   23.3394 O   0  0  0  0  0  0  0  0  0  0  0  0
    8.5955   -6.0705   17.3996 C   0  0  0  0  0  0  0  0  0  0  0  0
    4.6223   -8.3832   16.5030 C   0  0  0  0  0  0  0  0  0  0  0  0
   12.4690   -5.2624   19.9024 C   0  0  0  0  0  0  0  0  0  0  0  0
    3.2548   -9.9919   17.4189 C   0  0  0  0  0  0  0  0  0  0  0  0
   12.4767   -4.7393   22.1790 C   0  0  0  0  0  0  0  0  0  0  0  0
    7.8593   -5.3772   15.3569 N   0  0  0  0  0  0  0  0  0  0  0  0
    7.4412   -6.9038   16.9283 C   0  0  0  0  0  0  0  0  0  0  0  0
  1 21  4  0
  1 23  4  0
  2  5  1  0
  2 13  4  0
  2 16  4  0
  3  6  4  0
  3  7  4  0
  4 13  4  0
  4 19  4  0
  4 24  4  0
  6 23  4  0
  7 16  1  0
  7 21  4  0
  8 18  1  0
  9 20  4  0
  9 22  4  0
 10 17  1  0
 10 25  1  0
 11 16  4  0
 11 19  4  0
 12 15  4  0
 12 22  4  0
 14 24  4  0
 14 25  4  0
 15 17  4  0
 17 20  4  0
 18 23  1  0
 19 25  4  0
M  END
$$$$

 Created by Python create_sdf_string function

 25 28  0  0  0  0  0  0  0  0999 V2000
   13.1533   -5.2399   21.0682 C   0  0  0  0  0  0  0  0  0  0  0  0
   10.4729   -4.0295   17.6135 C   0  0  0  0  0  0  0  0  0  0  0  0
   10.4789   -4.3641   20.9564 C   0  0  0  0  0  0  0  0  0  0  0  0
    8.7421   -5.1412   16.3650 C   0  0  0  0  0  0  0  0  0  0  0  0
   11.4353   -2.9204   17.8044 C   0  0  0  0  0  0  0  0  0  0  0  0
   11.1529   -4.3028   22.1277 C   0  0  0  0  0  0  0  0  0  0  0  0
   11.1290   -4.8502   19.8052 C   0  0  0  0  0  0  0  0  0  0  0  0
   12.4329   -4.2159   24.4224 C   0  0  0  0  0  0  0  0  0  0  0  0
    3.4740   -9.0387   16.5022 C   0  0  0  0  0  0  0  0  0  0  0  0
    6.8384   -7.9290   17.5282 N   0  0  0  0  0  0  0  0  0  0  0  0
    9.4126   -5.9853   18.4899 C   0  0  0  0  0  0  0  0  0  0  0  0
    4.2064  -10.3242   18.3302 C   0  0  0  0  0  0  0  0  0  0  0  0
    9.6599   -4.1551   16.4796 N   0  0  0  0  0  0  0  0  0  0  0  0
    7.0644   -6.4612   15.7375 N   0  0  0  0  0  0  0  0  0  0  0  0
    5.3549   -9.6322   18.3190 C   0  0  0  0  0  0  0  0  0  0  0  0
   10.3704   -4.9638   18.6510 C   0  0  0  0  0  0  0  0  0  0  0  0
    5.5935   -8.6419   17.4234 C   0  0  0  0  0  0  0  0  0  0  0  0
   13.0726   -4.6648   23.3394 O   0  0  0  0  0  0  0  0  0  0  0  0
    8.5955   -6.0705   17.3996 C   0  0  0  0  0  0  0  0  0  0  0  0
    4.6223   -8.3832   16.5030 C   0  0  0  0  0  0  0  0  0  0  0  0
   12.4690   -5.2624   19.9024 C   0  0  0  0  0  0  0  0  0  0  0  0
    3.2548   -9.9919   17.4189 C   0  0  0  0  0  0  0  0  0  0  0  0
   12.4767   -4.7393   22.1790 C   0  0  0  0  0  0  0  0  0  0  0  0
    7.8593   -5.3772   15.3569 N   0  0  0  0  0  0  0  0  0  0  0  0
    7.4412   -6.9038   16.9283 C   0  0  0  0  0  0  0  0  0  0  0  0
  1 21  4  0
  1 23  4  0
  2  5  1  0
  2 13  4  0
  2 16  4  0
  3  6  4  0
  3  7  4  0
  4 13  4  0
  4 19  4  0
  4 24  4  0
  6 23  4  0
  7 16  1  0
  7 21  4  0
  8 18  1  0
  9 20  4  0
  9 22  4  0
 10 17  1  0
 10 25  1  0
 11 16  4  0
 11 19  4  0
 12 15  4  0
 12 22  4  0
 14 24  4  0
 14 25  4  0
 15 17  4  0
 17 20  4  0
 18 23  1  0
 19 25  4  0
M  END
$$$$

 Created by Python create_sdf_string function

 25 28  0  0  0  0  0  0  0  0999 V2000
   13.1533   -5.2399   21.0682 C   0  0  0  0  0  0  0  0  0  0  0  0
   10.4729   -4.0295   17.6135 C   0  0  0  0  0  0  0  0  0  0  0  0
   10.4789   -4.3641   20.9564 C   0  0  0  0  0  0  0  0  0  0  0  0
    8.7421   -5.1412   16.3650 C   0  0  0  0  0  0  0  0  0  0  0  0
   11.4353   -2.9204   17.8044 C   0  0  0  0  0  0  0  0  0  0  0  0
   11.1529   -4.3028   22.1277 C   0  0  0  0  0  0  0  0  0  0  0  0
   11.1290   -4.8502   19.8052 C   0  0  0  0  0  0  0  0  0  0  0  0
   12.4329   -4.2159   24.4224 C   0  0  0  0  0  0  0  0  0  0  0  0
    3.4740   -9.0387   16.5022 C   0  0  0  0  0  0  0  0  0  0  0  0
    6.8384   -7.9290   17.5282 N   0  0  0  0  0  0  0  0  0  0  0  0
    9.4126   -5.9853   18.4899 C   0  0  0  0  0  0  0  0  0  0  0  0
    4.2064  -10.3242   18.3302 C   0  0  0  0  0  0  0  0  0  0  0  0
    9.6599   -4.1551   16.4796 N   0  0  0  0  0  0  0  0  0  0  0  0
    7.0644   -6.4612   15.7375 N   0  0  0  0  0  0  0  0  0  0  0  0
    5.3549   -9.6322   18.3190 C   0  0  0  0  0  0  0  0  0  0  0  0
   10.3704   -4.9638   18.6510 C   0  0  0  0  0  0  0  0  0  0  0  0
    5.5935   -8.6419   17.4234 C   0  0  0  0  0  0  0  0  0  0  0  0
   13.0726   -4.6648   23.3394 O   0  0  0  0  0  0  0  0  0  0  0  0
    8.5955   -6.0705   17.3996 C   0  0  0  0  0  0  0  0  0  0  0  0
    4.6223   -8.3832   16.5030 C   0  0  0  0  0  0  0  0  0  0  0  0
   12.4690   -5.2624   19.9024 C   0  0  0  0  0  0  0  0  0  0  0  0
    3.2548   -9.9919   17.4189 C   0  0  0  0  0  0  0  0  0  0  0  0
   12.4767   -4.7393   22.1790 C   0  0  0  0  0  0  0  0  0  0  0  0
    7.8593   -5.3772   15.3569 N   0  0  0  0  0  0  0  0  0  0  0  0
    7.4412   -6.9038   16.9283 C   0  0  0  0  0  0  0  0  0  0  0  0
  1 21  4  0
  1 23  4  0
  2  5  1  0
  2 13  4  0
  2 16  4  0
  3  6  4  0
  3  7  4  0
  4 13  4  0
  4 19  4  0
  4 24  4  0
  6 23  4  0
  7 16  1  0
  7 21  4  0
  8 18  1  0
  9 20  4  0
  9 22  4  0
 10 17  1  0
 10 25  1  0
 11 16  4  0
 11 19  4  0
 12 15  4  0
 12 22  4  0
 14 24  4  0
 14 25  4  0
 15 17  4  0
 17 20  4  0
 18 23  1  0
 19 25  4  0
M  END
$$$$

 Created by Python create_sdf_string function

 25 28  0  0  0  0  0  0  0  0999 V2000
   13.1533   -5.2399   21.0682 C   0  0  0  0  0  0  0  0  0  0  0  0
   10.4729   -4.0295   17.6135 C   0  0  0  0  0  0  0  0  0  0  0  0
   10.4789   -4.3641   20.9564 C   0  0  0  0  0  0  0  0  0  0  0  0
    8.7421   -5.1412   16.3650 C   0  0  0  0  0  0  0  0  0  0  0  0
   11.4353   -2.9204   17.8044 C   0  0  0  0  0  0  0  0  0  0  0  0
   11.1529   -4.3028   22.1277 C   0  0  0  0  0  0  0  0  0  0  0  0
   11.1290   -4.8502   19.8052 C   0  0  0  0  0  0  0  0  0  0  0  0
   12.4329   -4.2159   24.4224 C   0  0  0  0  0  0  0  0  0  0  0  0
    3.4740   -9.0387   16.5022 C   0  0  0  0  0  0  0  0  0  0  0  0
    6.8384   -7.9290   17.5282 N   0  0  0  0  0  0  0  0  0  0  0  0
    9.4126   -5.9853   18.4899 C   0  0  0  0  0  0  0  0  0  0  0  0
    4.2064  -10.3242   18.3302 C   0  0  0  0  0  0  0  0  0  0  0  0
    9.6599   -4.1551   16.4796 N   0  0  0  0  0  0  0  0  0  0  0  0
    7.0644   -6.4612   15.7375 N   0  0  0  0  0  0  0  0  0  0  0  0
    5.3549   -9.6322   18.3190 C   0  0  0  0  0  0  0  0  0  0  0  0
   10.3704   -4.9638   18.6510 C   0  0  0  0  0  0  0  0  0  0  0  0
    5.5935   -8.6419   17.4234 C   0  0  0  0  0  0  0  0  0  0  0  0
   13.0726   -4.6648   23.3394 O   0  0  0  0  0  0  0  0  0  0  0  0
    8.5955   -6.0705   17.3996 C   0  0  0  0  0  0  0  0  0  0  0  0
    4.6223   -8.3832   16.5030 C   0  0  0  0  0  0  0  0  0  0  0  0
   12.4690   -5.2624   19.9024 C   0  0  0  0  0  0  0  0  0  0  0  0
    3.2548   -9.9919   17.4189 C   0  0  0  0  0  0  0  0  0  0  0  0
   12.4767   -4.7393   22.1790 C   0  0  0  0  0  0  0  0  0  0  0  0
    7.8593   -5.3772   15.3569 N   0  0  0  0  0  0  0  0  0  0  0  0
    7.4412   -6.9038   16.9283 C   0  0  0  0  0  0  0  0  0  0  0  0
  1 21  4  0
  1 23  4  0
  2  5  1  0
  2 13  4  0
  2 16  4  0
  3  6  4  0
  3  7  4  0
  4 13  4  0
  4 19  4  0
  4 24  4  0
  6 23  4  0
  7 16  1  0
  7 21  4  0
  8 18  1  0
  9 20  4  0
  9 22  4  0
 10 17  1  0
 10 25  1  0
 11 16  4  0
 11 19  4  0
 12 15  4  0
 12 22  4  0
 14 24  4  0
 14 25  4  0
 15 17  4  0
 17 20  4  0
 18 23  1  0
 19 25  4  0
M  END
$$$$

 Created by Python create_sdf_string function

 25 28  0  0  0  0  0  0  0  0999 V2000
   13.1533   -5.2399   21.0682 C   0  0  0  0  0  0  0  0  0  0  0  0
   10.4729   -4.0295   17.6135 C   0  0  0  0  0  0  0  0  0  0  0  0
   10.4789   -4.3641   20.9564 C   0  0  0  0  0  0  0  0  0  0  0  0
    8.7421   -5.1412   16.3650 C   0  0  0  0  0  0  0  0  0  0  0  0
   11.4353   -2.9204   17.8044 C   0  0  0  0  0  0  0  0  0  0  0  0
   11.1529   -4.3028   22.1277 C   0  0  0  0  0  0  0  0  0  0  0  0
   11.1290   -4.8502   19.8052 C   0  0  0  0  0  0  0  0  0  0  0  0
   12.4329   -4.2159   24.4224 C   0  0  0  0  0  0  0  0  0  0  0  0
    3.4740   -9.0387   16.5022 C   0  0  0  0  0  0  0  0  0  0  0  0
    6.8384   -7.9290   17.5282 N   0  0  0  0  0  0  0  0  0  0  0  0
    9.4126   -5.9853   18.4899 C   0  0  0  0  0  0  0  0  0  0  0  0
    4.2064  -10.3242   18.3302 C   0  0  0  0  0  0  0  0  0  0  0  0
    9.6599   -4.1551   16.4796 N   0  0  0  0  0  0  0  0  0  0  0  0
    7.0644   -6.4612   15.7375 N   0  0  0  0  0  0  0  0  0  0  0  0
    5.3549   -9.6322   18.3190 C   0  0  0  0  0  0  0  0  0  0  0  0
   10.3704   -4.9638   18.6510 C   0  0  0  0  0  0  0  0  0  0  0  0
    5.5935   -8.6419   17.4234 C   0  0  0  0  0  0  0  0  0  0  0  0
   13.0726   -4.6648   23.3394 O   0  0  0  0  0  0  0  0  0  0  0  0
    8.5955   -6.0705   17.3996 C   0  0  0  0  0  0  0  0  0  0  0  0
    4.6223   -8.3832   16.5030 C   0  0  0  0  0  0  0  0  0  0  0  0
   12.4690   -5.2624   19.9024 C   0  0  0  0  0  0  0  0  0  0  0  0
    3.2548   -9.9919   17.4189 C   0  0  0  0  0  0  0  0  0  0  0  0
   12.4767   -4.7393   22.1790 C   0  0  0  0  0  0  0  0  0  0  0  0
    7.8593   -5.3772   15.3569 N   0  0  0  0  0  0  0  0  0  0  0  0
    7.4412   -6.9038   16.9283 C   0  0  0  0  0  0  0  0  0  0  0  0
  1 21  4  0
  1 23  4  0
  2  5  1  0
  2 13  4  0
  2 16  4  0
  3  6  4  0
  3  7  4  0
  4 13  4  0
  4 19  4  0
  4 24  4  0
  6 23  4  0
  7 16  1  0
  7 21  4  0
  8 18  1  0
  9 20  4  0
  9 22  4  0
 10 17  1  0
 10 25  1  0
 11 16  4  0
 11 19  4  0
 12 15  4  0
 12 22  4  0
 14 24  4  0
 14 25  4  0
 15 17  4  0
 17 20  4  0
 18 23  1  0
 19 25  4  0
M  END
$$$$

 Created by Python create_sdf_string function

 25 28  0  0  0  0  0  0  0  0999 V2000
   13.1533   -5.2399   21.0682 C   0  0  0  0  0  0  0  0  0  0  0  0
   10.4729   -4.0295   17.6135 C   0  0  0  0  0  0  0  0  0  0  0  0
   10.4789   -4.3641   20.9564 C   0  0  0  0  0  0  0  0  0  0  0  0
    8.7421   -5.1412   16.3650 C   0  0  0  0  0  0  0  0  0  0  0  0
   11.4353   -2.9204   17.8044 C   0  0  0  0  0  0  0  0  0  0  0  0
   11.1529   -4.3028   22.1277 C   0  0  0  0  0  0  0  0  0  0  0  0
   11.1290   -4.8502   19.8052 C   0  0  0  0  0  0  0  0  0  0  0  0
   12.4329   -4.2159   24.4224 C   0  0  0  0  0  0  0  0  0  0  0  0
    3.4740   -9.0387   16.5022 C   0  0  0  0  0  0  0  0  0  0  0  0
    6.8384   -7.9290   17.5282 N   0  0  0  0  0  0  0  0  0  0  0  0
    9.4126   -5.9853   18.4899 C   0  0  0  0  0  0  0  0  0  0  0  0
    4.2064  -10.3242   18.3302 C   0  0  0  0  0  0  0  0  0  0  0  0
    9.6599   -4.1551   16.4796 N   0  0  0  0  0  0  0  0  0  0  0  0
    7.0644   -6.4612   15.7375 N   0  0  0  0  0  0  0  0  0  0  0  0
    5.3549   -9.6322   18.3190 C   0  0  0  0  0  0  0  0  0  0  0  0
   10.3704   -4.9638   18.6510 C   0  0  0  0  0  0  0  0  0  0  0  0
    5.5935   -8.6419   17.4234 C   0  0  0  0  0  0  0  0  0  0  0  0
   13.0726   -4.6648   23.3394 O   0  0  0  0  0  0  0  0  0  0  0  0
    8.5955   -6.0705   17.3996 C   0  0  0  0  0  0  0  0  0  0  0  0
    4.6223   -8.3832   16.5030 C   0  0  0  0  0  0  0  0  0  0  0  0
   12.4690   -5.2624   19.9024 C   0  0  0  0  0  0  0  0  0  0  0  0
    3.2548   -9.9919   17.4189 C   0  0  0  0  0  0  0  0  0  0  0  0
   12.4767   -4.7393   22.1790 C   0  0  0  0  0  0  0  0  0  0  0  0
    7.8593   -5.3772   15.3569 N   0  0  0  0  0  0  0  0  0  0  0  0
    7.4412   -6.9038   16.9283 C   0  0  0  0  0  0  0  0  0  0  0  0
  1 21  4  0
  1 23  4  0
  2  5  1  0
  2 13  4  0
  2 16  4  0
  3  6  4  0
  3  7  4  0
  4 13  4  0
  4 19  4  0
  4 24  4  0
  6 23  4  0
  7 16  1  0
  7 21  4  0
  8 18  1  0
  9 20  4  0
  9 22  4  0
 10 17  1  0
 10 25  1  0
 11 16  4  0
 11 19  4  0
 12 15  4  0
 12 22  4  0
 14 24  4  0
 14 25  4  0
 15 17  4  0
 17 20  4  0
 18 23  1  0
 19 25  4  0
M  END
$$$$

 Created by Python create_sdf_string function

 25 28  0  0  0  0  0  0  0  0999 V2000
   13.1533   -5.2399   21.0682 C   0  0  0  0  0  0  0  0  0  0  0  0
   10.4729   -4.0295   17.6135 C   0  0  0  0  0  0  0  0  0  0  0  0
   10.4789   -4.3641   20.9564 C   0  0  0  0  0  0  0  0  0  0  0  0
    8.7421   -5.1412   16.3650 C   0  0  0  0  0  0  0  0  0  0  0  0
   11.4353   -2.9204   17.8044 C   0  0  0  0  0  0  0  0  0  0  0  0
   11.1529   -4.3028   22.1277 C   0  0  0  0  0  0  0  0  0  0  0  0
   11.1290   -4.8502   19.8052 C   0  0  0  0  0  0  0  0  0  0  0  0
   12.4329   -4.2159   24.4224 C   0  0  0  0  0  0  0  0  0  0  0  0
    3.4740   -9.0387   16.5022 C   0  0  0  0  0  0  0  0  0  0  0  0
    6.8384   -7.9290   17.5282 N   0  0  0  0  0  0  0  0  0  0  0  0
    9.4126   -5.9853   18.4899 C   0  0  0  0  0  0  0  0  0  0  0  0
    4.2064  -10.3242   18.3302 C   0  0  0  0  0  0  0  0  0  0  0  0
    9.6599   -4.1551   16.4796 N   0  0  0  0  0  0  0  0  0  0  0  0
    7.0644   -6.4612   15.7375 N   0  0  0  0  0  0  0  0  0  0  0  0
    5.3549   -9.6322   18.3190 C   0  0  0  0  0  0  0  0  0  0  0  0
   10.3704   -4.9638   18.6510 C   0  0  0  0  0  0  0  0  0  0  0  0
    5.5935   -8.6419   17.4234 C   0  0  0  0  0  0  0  0  0  0  0  0
   13.0726   -4.6648   23.3394 O   0  0  0  0  0  0  0  0  0  0  0  0
    8.5955   -6.0705   17.3996 C   0  0  0  0  0  0  0  0  0  0  0  0
    4.6223   -8.3832   16.5030 C   0  0  0  0  0  0  0  0  0  0  0  0
   12.4690   -5.2624   19.9024 C   0  0  0  0  0  0  0  0  0  0  0  0
    3.2548   -9.9919   17.4189 C   0  0  0  0  0  0  0  0  0  0  0  0
   12.4767   -4.7393   22.1790 C   0  0  0  0  0  0  0  0  0  0  0  0
    7.8593   -5.3772   15.3569 N   0  0  0  0  0  0  0  0  0  0  0  0
    7.4412   -6.9038   16.9283 C   0  0  0  0  0  0  0  0  0  0  0  0
  1 21  4  0
  1 23  4  0
  2  5  1  0
  2 13  4  0
  2 16  4  0
  3  6  4  0
  3  7  4  0
  4 13  4  0
  4 19  4  0
  4 24  4  0
  6 23  4  0
  7 16  1  0
  7 21  4  0
  8 18  1  0
  9 20  4  0
  9 22  4  0
 10 17  1  0
 10 25  1  0
 11 16  4  0
 11 19  4  0
 12 15  4  0
 12 22  4  0
 14 24  4  0
 14 25  4  0
 15 17  4  0
 17 20  4  0
 18 23  1  0
 19 25  4  0
M  END
$$$$

 Created by Python create_sdf_string function

 25 28  0  0  0  0  0  0  0  0999 V2000
   13.1533   -5.2399   21.0682 C   0  0  0  0  0  0  0  0  0  0  0  0
   10.4729   -4.0295   17.6135 C   0  0  0  0  0  0  0  0  0  0  0  0
   10.4789   -4.3641   20.9564 C   0  0  0  0  0  0  0  0  0  0  0  0
    8.7421   -5.1412   16.3650 C   0  0  0  0  0  0  0  0  0  0  0  0
   11.4353   -2.9204   17.8044 C   0  0  0  0  0  0  0  0  0  0  0  0
   11.1529   -4.3028   22.1277 C   0  0  0  0  0  0  0  0  0  0  0  0
   11.1290   -4.8502   19.8052 C   0  0  0  0  0  0  0  0  0  0  0  0
   12.4329   -4.2159   24.4224 C   0  0  0  0  0  0  0  0  0  0  0  0
    3.4740   -9.0387   16.5022 C   0  0  0  0  0  0  0  0  0  0  0  0
    6.8384   -7.9290   17.5282 N   0  0  0  0  0  0  0  0  0  0  0  0
    9.4126   -5.9853   18.4899 C   0  0  0  0  0  0  0  0  0  0  0  0
    4.2064  -10.3242   18.3302 C   0  0  0  0  0  0  0  0  0  0  0  0
    9.6599   -4.1551   16.4796 N   0  0  0  0  0  0  0  0  0  0  0  0
    7.0644   -6.4612   15.7375 N   0  0  0  0  0  0  0  0  0  0  0  0
    5.3549   -9.6322   18.3190 C   0  0  0  0  0  0  0  0  0  0  0  0
   10.3704   -4.9638   18.6510 C   0  0  0  0  0  0  0  0  0  0  0  0
    5.5935   -8.6419   17.4234 C   0  0  0  0  0  0  0  0  0  0  0  0
   13.0726   -4.6648   23.3394 O   0  0  0  0  0  0  0  0  0  0  0  0
    8.5955   -6.0705   17.3996 C   0  0  0  0  0  0  0  0  0  0  0  0
    4.6223   -8.3832   16.5030 C   0  0  0  0  0  0  0  0  0  0  0  0
   12.4690   -5.2624   19.9024 C   0  0  0  0  0  0  0  0  0  0  0  0
    3.2548   -9.9919   17.4189 C   0  0  0  0  0  0  0  0  0  0  0  0
   12.4767   -4.7393   22.1790 C   0  0  0  0  0  0  0  0  0  0  0  0
    7.8593   -5.3772   15.3569 N   0  0  0  0  0  0  0  0  0  0  0  0
    7.4412   -6.9038   16.9283 C   0  0  0  0  0  0  0  0  0  0  0  0
  1 21  4  0
  1 23  4  0
  2  5  1  0
  2 13  4  0
  2 16  4  0
  3  6  4  0
  3  7  4  0
  4 13  4  0
  4 19  4  0
  4 24  4  0
  6 23  4  0
  7 16  1  0
  7 21  4  0
  8 18  1  0
  9 20  4  0
  9 22  4  0
 10 17  1  0
 10 25  1  0
 11 16  4  0
 11 19  4  0
 12 15  4  0
 12 22  4  0
 14 24  4  0
 14 25  4  0
 15 17  4  0
 17 20  4  0
 18 23  1  0
 19 25  4  0
M  END
$$$$

 Created by Python create_sdf_string function

 25 28  0  0  0  0  0  0  0  0999 V2000
   13.1533   -5.2399   21.0682 C   0  0  0  0  0  0  0  0  0  0  0  0
   10.4729   -4.0295   17.6135 C   0  0  0  0  0  0  0  0  0  0  0  0
   10.4789   -4.3641   20.9564 C   0  0  0  0  0  0  0  0  0  0  0  0
    8.7421   -5.1412   16.3650 C   0  0  0  0  0  0  0  0  0  0  0  0
   11.4353   -2.9204   17.8044 C   0  0  0  0  0  0  0  0  0  0  0  0
   11.1529   -4.3028   22.1277 C   0  0  0  0  0  0  0  0  0  0  0  0
   11.1290   -4.8502   19.8052 C   0  0  0  0  0  0  0  0  0  0  0  0
   12.4329   -4.2159   24.4224 C   0  0  0  0  0  0  0  0  0  0  0  0
    3.4740   -9.0387   16.5022 C   0  0  0  0  0  0  0  0  0  0  0  0
    6.8384   -7.9290   17.5282 N   0  0  0  0  0  0  0  0  0  0  0  0
    9.4126   -5.9853   18.4899 C   0  0  0  0  0  0  0  0  0  0  0  0
    4.2064  -10.3242   18.3302 C   0  0  0  0  0  0  0  0  0  0  0  0
    9.6599   -4.1551   16.4796 N   0  0  0  0  0  0  0  0  0  0  0  0
    7.0644   -6.4612   15.7375 N   0  0  0  0  0  0  0  0  0  0  0  0
    5.3549   -9.6322   18.3190 C   0  0  0  0  0  0  0  0  0  0  0  0
   10.3704   -4.9638   18.6510 C   0  0  0  0  0  0  0  0  0  0  0  0
    5.5935   -8.6419   17.4234 C   0  0  0  0  0  0  0  0  0  0  0  0
   13.0726   -4.6648   23.3394 O   0  0  0  0  0  0  0  0  0  0  0  0
    8.5955   -6.0705   17.3996 C   0  0  0  0  0  0  0  0  0  0  0  0
    4.6223   -8.3832   16.5030 C   0  0  0  0  0  0  0  0  0  0  0  0
   12.4690   -5.2624   19.9024 C   0  0  0  0  0  0  0  0  0  0  0  0
    3.2548   -9.9919   17.4189 C   0  0  0  0  0  0  0  0  0  0  0  0
   12.4767   -4.7393   22.1790 C   0  0  0  0  0  0  0  0  0  0  0  0
    7.8593   -5.3772   15.3569 N   0  0  0  0  0  0  0  0  0  0  0  0
    7.4412   -6.9038   16.9283 C   0  0  0  0  0  0  0  0  0  0  0  0
  1 21  4  0
  1 23  4  0
  2  5  1  0
  2 13  4  0
  2 16  4  0
  3  6  4  0
  3  7  4  0
  4 13  4  0
  4 19  4  0
  4 24  4  0
  6 23  4  0
  7 16  1  0
  7 21  4  0
  8 18  1  0
  9 20  4  0
  9 22  4  0
 10 17  1  0
 10 25  1  0
 11 16  4  0
 11 19  4  0
 12 15  4  0
 12 22  4  0
 14 24  4  0
 14 25  4  0
 15 17  4  0
 17 20  4  0
 18 23  1  0
 19 25  4  0
M  END
$$$$

 Created by Python create_sdf_string function

 25 28  0  0  0  0  0  0  0  0999 V2000
   13.1533   -5.2399   21.0682 C   0  0  0  0  0  0  0  0  0  0  0  0
   10.4729   -4.0295   17.6135 C   0  0  0  0  0  0  0  0  0  0  0  0
   10.4789   -4.3641   20.9564 C   0  0  0  0  0  0  0  0  0  0  0  0
    8.7421   -5.1412   16.3650 C   0  0  0  0  0  0  0  0  0  0  0  0
   11.4353   -2.9204   17.8044 C   0  0  0  0  0  0  0  0  0  0  0  0
   11.1529   -4.3028   22.1277 C   0  0  0  0  0  0  0  0  0  0  0  0
   11.1290   -4.8502   19.8052 C   0  0  0  0  0  0  0  0  0  0  0  0
   12.4329   -4.2159   24.4224 C   0  0  0  0  0  0  0  0  0  0  0  0
    3.4740   -9.0387   16.5022 C   0  0  0  0  0  0  0  0  0  0  0  0
    6.8384   -7.9290   17.5282 N   0  0  0  0  0  0  0  0  0  0  0  0
    9.4126   -5.9853   18.4899 C   0  0  0  0  0  0  0  0  0  0  0  0
    4.2064  -10.3242   18.3302 C   0  0  0  0  0  0  0  0  0  0  0  0
    9.6599   -4.1551   16.4796 N   0  0  0  0  0  0  0  0  0  0  0  0
    7.0644   -6.4612   15.7375 N   0  0  0  0  0  0  0  0  0  0  0  0
    5.3549   -9.6322   18.3190 C   0  0  0  0  0  0  0  0  0  0  0  0
   10.3704   -4.9638   18.6510 C   0  0  0  0  0  0  0  0  0  0  0  0
    5.5935   -8.6419   17.4234 C   0  0  0  0  0  0  0  0  0  0  0  0
   13.0726   -4.6648   23.3394 O   0  0  0  0  0  0  0  0  0  0  0  0
    8.5955   -6.0705   17.3996 C   0  0  0  0  0  0  0  0  0  0  0  0
    4.6223   -8.3832   16.5030 C   0  0  0  0  0  0  0  0  0  0  0  0
   12.4690   -5.2624   19.9024 C   0  0  0  0  0  0  0  0  0  0  0  0
    3.2548   -9.9919   17.4189 C   0  0  0  0  0  0  0  0  0  0  0  0
   12.4767   -4.7393   22.1790 C   0  0  0  0  0  0  0  0  0  0  0  0
    7.8593   -5.3772   15.3569 N   0  0  0  0  0  0  0  0  0  0  0  0
    7.4412   -6.9038   16.9283 C   0  0  0  0  0  0  0  0  0  0  0  0
  1 21  4  0
  1 23  4  0
  2  5  1  0
  2 13  4  0
  2 16  4  0
  3  6  4  0
  3  7  4  0
  4 13  4  0
  4 19  4  0
  4 24  4  0
  6 23  4  0
  7 16  1  0
  7 21  4  0
  8 18  1  0
  9 20  4  0
  9 22  4  0
 10 17  1  0
 10 25  1  0
 11 16  4  0
 11 19  4  0
 12 15  4  0
 12 22  4  0
 14 24  4  0
 14 25  4  0
 15 17  4  0
 17 20  4  0
 18 23  1  0
 19 25  4  0
M  END
$$$$

 Created by Python create_sdf_string function

 25 28  0  0  0  0  0  0  0  0999 V2000
   13.1533   -5.2399   21.0682 C   0  0  0  0  0  0  0  0  0  0  0  0
   10.4729   -4.0295   17.6135 C   0  0  0  0  0  0  0  0  0  0  0  0
   10.4789   -4.3641   20.9564 C   0  0  0  0  0  0  0  0  0  0  0  0
    8.7421   -5.1412   16.3650 C   0  0  0  0  0  0  0  0  0  0  0  0
   11.4353   -2.9204   17.8044 C   0  0  0  0  0  0  0  0  0  0  0  0
   11.1529   -4.3028   22.1277 C   0  0  0  0  0  0  0  0  0  0  0  0
   11.1290   -4.8502   19.8052 C   0  0  0  0  0  0  0  0  0  0  0  0
   12.4329   -4.2159   24.4224 C   0  0  0  0  0  0  0  0  0  0  0  0
    3.4740   -9.0387   16.5022 C   0  0  0  0  0  0  0  0  0  0  0  0
    6.8384   -7.9290   17.5282 N   0  0  0  0  0  0  0  0  0  0  0  0
    9.4126   -5.9853   18.4899 C   0  0  0  0  0  0  0  0  0  0  0  0
    4.2064  -10.3242   18.3302 C   0  0  0  0  0  0  0  0  0  0  0  0
    9.6599   -4.1551   16.4796 N   0  0  0  0  0  0  0  0  0  0  0  0
    7.0644   -6.4612   15.7375 N   0  0  0  0  0  0  0  0  0  0  0  0
    5.3549   -9.6322   18.3190 C   0  0  0  0  0  0  0  0  0  0  0  0
   10.3704   -4.9638   18.6510 C   0  0  0  0  0  0  0  0  0  0  0  0
    5.5935   -8.6419   17.4234 C   0  0  0  0  0  0  0  0  0  0  0  0
   13.0726   -4.6648   23.3394 O   0  0  0  0  0  0  0  0  0  0  0  0
    8.5955   -6.0705   17.3996 C   0  0  0  0  0  0  0  0  0  0  0  0
    4.6223   -8.3832   16.5030 C   0  0  0  0  0  0  0  0  0  0  0  0
   12.4690   -5.2624   19.9024 C   0  0  0  0  0  0  0  0  0  0  0  0
    3.2548   -9.9919   17.4189 C   0  0  0  0  0  0  0  0  0  0  0  0
   12.4767   -4.7393   22.1790 C   0  0  0  0  0  0  0  0  0  0  0  0
    7.8593   -5.3772   15.3569 N   0  0  0  0  0  0  0  0  0  0  0  0
    7.4412   -6.9038   16.9283 C   0  0  0  0  0  0  0  0  0  0  0  0
  1 21  4  0
  1 23  4  0
  2  5  1  0
  2 13  4  0
  2 16  4  0
  3  6  4  0
  3  7  4  0
  4 13  4  0
  4 19  4  0
  4 24  4  0
  6 23  4  0
  7 16  1  0
  7 21  4  0
  8 18  1  0
  9 20  4  0
  9 22  4  0
 10 17  1  0
 10 25  1  0
 11 16  4  0
 11 19  4  0
 12 15  4  0
 12 22  4  0
 14 24  4  0
 14 25  4  0
 15 17  4  0
 17 20  4  0
 18 23  1  0
 19 25  4  0
M  END
$$$$

 Created by Python create_sdf_string function

 25 28  0  0  0  0  0  0  0  0999 V2000
   13.1533   -5.2399   21.0682 C   0  0  0  0  0  0  0  0  0  0  0  0
   10.4729   -4.0295   17.6135 C   0  0  0  0  0  0  0  0  0  0  0  0
   10.4789   -4.3641   20.9564 C   0  0  0  0  0  0  0  0  0  0  0  0
    8.7421   -5.1412   16.3650 C   0  0  0  0  0  0  0  0  0  0  0  0
   11.4353   -2.9204   17.8044 C   0  0  0  0  0  0  0  0  0  0  0  0
   11.1529   -4.3028   22.1277 C   0  0  0  0  0  0  0  0  0  0  0  0
   11.1290   -4.8502   19.8052 C   0  0  0  0  0  0  0  0  0  0  0  0
   12.4329   -4.2159   24.4224 C   0  0  0  0  0  0  0  0  0  0  0  0
    3.4740   -9.0387   16.5022 C   0  0  0  0  0  0  0  0  0  0  0  0
    6.8384   -7.9290   17.5282 N   0  0  0  0  0  0  0  0  0  0  0  0
    9.4126   -5.9853   18.4899 C   0  0  0  0  0  0  0  0  0  0  0  0
    4.2064  -10.3242   18.3302 C   0  0  0  0  0  0  0  0  0  0  0  0
    9.6599   -4.1551   16.4796 N   0  0  0  0  0  0  0  0  0  0  0  0
    7.0644   -6.4612   15.7375 N   0  0  0  0  0  0  0  0  0  0  0  0
    5.3549   -9.6322   18.3190 C   0  0  0  0  0  0  0  0  0  0  0  0
   10.3704   -4.9638   18.6510 C   0  0  0  0  0  0  0  0  0  0  0  0
    5.5935   -8.6419   17.4234 C   0  0  0  0  0  0  0  0  0  0  0  0
   13.0726   -4.6648   23.3394 O   0  0  0  0  0  0  0  0  0  0  0  0
    8.5955   -6.0705   17.3996 C   0  0  0  0  0  0  0  0  0  0  0  0
    4.6223   -8.3832   16.5030 C   0  0  0  0  0  0  0  0  0  0  0  0
   12.4690   -5.2624   19.9024 C   0  0  0  0  0  0  0  0  0  0  0  0
    3.2548   -9.9919   17.4189 C   0  0  0  0  0  0  0  0  0  0  0  0
   12.4767   -4.7393   22.1790 C   0  0  0  0  0  0  0  0  0  0  0  0
    7.8593   -5.3772   15.3569 N   0  0  0  0  0  0  0  0  0  0  0  0
    7.4412   -6.9038   16.9283 C   0  0  0  0  0  0  0  0  0  0  0  0
  1 21  4  0
  1 23  4  0
  2  5  1  0
  2 13  4  0
  2 16  4  0
  3  6  4  0
  3  7  4  0
  4 13  4  0
  4 19  4  0
  4 24  4  0
  6 23  4  0
  7 16  1  0
  7 21  4  0
  8 18  1  0
  9 20  4  0
  9 22  4  0
 10 17  1  0
 10 25  1  0
 11 16  4  0
 11 19  4  0
 12 15  4  0
 12 22  4  0
 14 24  4  0
 14 25  4  0
 15 17  4  0
 17 20  4  0
 18 23  1  0
 19 25  4  0
M  END
$$$$

 Created by Python create_sdf_string function

 25 28  0  0  0  0  0  0  0  0999 V2000
   13.1533   -5.2399   21.0682 C   0  0  0  0  0  0  0  0  0  0  0  0
   10.4729   -4.0295   17.6135 C   0  0  0  0  0  0  0  0  0  0  0  0
   10.4789   -4.3641   20.9564 C   0  0  0  0  0  0  0  0  0  0  0  0
    8.7421   -5.1412   16.3650 C   0  0  0  0  0  0  0  0  0  0  0  0
   11.4353   -2.9204   17.8044 C   0  0  0  0  0  0  0  0  0  0  0  0
   11.1529   -4.3028   22.1277 C   0  0  0  0  0  0  0  0  0  0  0  0
   11.1290   -4.8502   19.8052 C   0  0  0  0  0  0  0  0  0  0  0  0
   12.4329   -4.2159   24.4224 C   0  0  0  0  0  0  0  0  0  0  0  0
    3.4740   -9.0387   16.5022 C   0  0  0  0  0  0  0  0  0  0  0  0
    6.8384   -7.9290   17.5282 N   0  0  0  0  0  0  0  0  0  0  0  0
    9.4126   -5.9853   18.4899 C   0  0  0  0  0  0  0  0  0  0  0  0
    4.2064  -10.3242   18.3302 C   0  0  0  0  0  0  0  0  0  0  0  0
    9.6599   -4.1551   16.4796 N   0  0  0  0  0  0  0  0  0  0  0  0
    7.0644   -6.4612   15.7375 N   0  0  0  0  0  0  0  0  0  0  0  0
    5.3549   -9.6322   18.3190 C   0  0  0  0  0  0  0  0  0  0  0  0
   10.3704   -4.9638   18.6510 C   0  0  0  0  0  0  0  0  0  0  0  0
    5.5935   -8.6419   17.4234 C   0  0  0  0  0  0  0  0  0  0  0  0
   13.0726   -4.6648   23.3394 O   0  0  0  0  0  0  0  0  0  0  0  0
    8.5955   -6.0705   17.3996 C   0  0  0  0  0  0  0  0  0  0  0  0
    4.6223   -8.3832   16.5030 C   0  0  0  0  0  0  0  0  0  0  0  0
   12.4690   -5.2624   19.9024 C   0  0  0  0  0  0  0  0  0  0  0  0
    3.2548   -9.9919   17.4189 C   0  0  0  0  0  0  0  0  0  0  0  0
   12.4767   -4.7393   22.1790 C   0  0  0  0  0  0  0  0  0  0  0  0
    7.8593   -5.3772   15.3569 N   0  0  0  0  0  0  0  0  0  0  0  0
    7.4412   -6.9038   16.9283 C   0  0  0  0  0  0  0  0  0  0  0  0
  1 21  4  0
  1 23  4  0
  2  5  1  0
  2 13  4  0
  2 16  4  0
  3  6  4  0
  3  7  4  0
  4 13  4  0
  4 19  4  0
  4 24  4  0
  6 23  4  0
  7 16  1  0
  7 21  4  0
  8 18  1  0
  9 20  4  0
  9 22  4  0
 10 17  1  0
 10 25  1  0
 11 16  4  0
 11 19  4  0
 12 15  4  0
 12 22  4  0
 14 24  4  0
 14 25  4  0
 15 17  4  0
 17 20  4  0
 18 23  1  0
 19 25  4  0
M  END
$$$$

 Created by Python create_sdf_string function

 25 28  0  0  0  0  0  0  0  0999 V2000
   13.1533   -5.2399   21.0682 C   0  0  0  0  0  0  0  0  0  0  0  0
   10.4729   -4.0295   17.6135 C   0  0  0  0  0  0  0  0  0  0  0  0
   10.4789   -4.3641   20.9564 C   0  0  0  0  0  0  0  0  0  0  0  0
    8.7421   -5.1412   16.3650 C   0  0  0  0  0  0  0  0  0  0  0  0
   11.4353   -2.9204   17.8044 C   0  0  0  0  0  0  0  0  0  0  0  0
   11.1529   -4.3028   22.1277 C   0  0  0  0  0  0  0  0  0  0  0  0
   11.1290   -4.8502   19.8052 C   0  0  0  0  0  0  0  0  0  0  0  0
   12.4329   -4.2159   24.4224 C   0  0  0  0  0  0  0  0  0  0  0  0
    3.4740   -9.0387   16.5022 C   0  0  0  0  0  0  0  0  0  0  0  0
    6.8384   -7.9290   17.5282 N   0  0  0  0  0  0  0  0  0  0  0  0
    9.4126   -5.9853   18.4899 C   0  0  0  0  0  0  0  0  0  0  0  0
    4.2064  -10.3242   18.3302 C   0  0  0  0  0  0  0  0  0  0  0  0
    9.6599   -4.1551   16.4796 N   0  0  0  0  0  0  0  0  0  0  0  0
    7.0644   -6.4612   15.7375 N   0  0  0  0  0  0  0  0  0  0  0  0
    5.3549   -9.6322   18.3190 C   0  0  0  0  0  0  0  0  0  0  0  0
   10.3704   -4.9638   18.6510 C   0  0  0  0  0  0  0  0  0  0  0  0
    5.5935   -8.6419   17.4234 C   0  0  0  0  0  0  0  0  0  0  0  0
   13.0726   -4.6648   23.3394 O   0  0  0  0  0  0  0  0  0  0  0  0
    8.5955   -6.0705   17.3996 C   0  0  0  0  0  0  0  0  0  0  0  0
    4.6223   -8.3832   16.5030 C   0  0  0  0  0  0  0  0  0  0  0  0
   12.4690   -5.2624   19.9024 C   0  0  0  0  0  0  0  0  0  0  0  0
    3.2548   -9.9919   17.4189 C   0  0  0  0  0  0  0  0  0  0  0  0
   12.4767   -4.7393   22.1790 C   0  0  0  0  0  0  0  0  0  0  0  0
    7.8593   -5.3772   15.3569 N   0  0  0  0  0  0  0  0  0  0  0  0
    7.4412   -6.9038   16.9283 C   0  0  0  0  0  0  0  0  0  0  0  0
  1 21  4  0
  1 23  4  0
  2  5  1  0
  2 13  4  0
  2 16  4  0
  3  6  4  0
  3  7  4  0
  4 13  4  0
  4 19  4  0
  4 24  4  0
  6 23  4  0
  7 16  1  0
  7 21  4  0
  8 18  1  0
  9 20  4  0
  9 22  4  0
 10 17  1  0
 10 25  1  0
 11 16  4  0
 11 19  4  0
 12 15  4  0
 12 22  4  0
 14 24  4  0
 14 25  4  0
 15 17  4  0
 17 20  4  0
 18 23  1  0
 19 25  4  0
M  END
$$$$

 Created by Python create_sdf_string function

 25 28  0  0  0  0  0  0  0  0999 V2000
   13.1533   -5.2399   21.0682 C   0  0  0  0  0  0  0  0  0  0  0  0
   10.4729   -4.0295   17.6135 C   0  0  0  0  0  0  0  0  0  0  0  0
   10.4789   -4.3641   20.9564 C   0  0  0  0  0  0  0  0  0  0  0  0
    8.7421   -5.1412   16.3650 C   0  0  0  0  0  0  0  0  0  0  0  0
   11.4353   -2.9204   17.8044 C   0  0  0  0  0  0  0  0  0  0  0  0
   11.1529   -4.3028   22.1277 C   0  0  0  0  0  0  0  0  0  0  0  0
   11.1290   -4.8502   19.8052 C   0  0  0  0  0  0  0  0  0  0  0  0
   12.4329   -4.2159   24.4224 C   0  0  0  0  0  0  0  0  0  0  0  0
    3.4740   -9.0387   16.5022 C   0  0  0  0  0  0  0  0  0  0  0  0
    6.8384   -7.9290   17.5282 N   0  0  0  0  0  0  0  0  0  0  0  0
    9.4126   -5.9853   18.4899 C   0  0  0  0  0  0  0  0  0  0  0  0
    4.2064  -10.3242   18.3302 C   0  0  0  0  0  0  0  0  0  0  0  0
    9.6599   -4.1551   16.4796 N   0  0  0  0  0  0  0  0  0  0  0  0
    7.0644   -6.4612   15.7375 N   0  0  0  0  0  0  0  0  0  0  0  0
    5.3549   -9.6322   18.3190 C   0  0  0  0  0  0  0  0  0  0  0  0
   10.3704   -4.9638   18.6510 C   0  0  0  0  0  0  0  0  0  0  0  0
    5.5935   -8.6419   17.4234 C   0  0  0  0  0  0  0  0  0  0  0  0
   13.0726   -4.6648   23.3394 O   0  0  0  0  0  0  0  0  0  0  0  0
    8.5955   -6.0705   17.3996 C   0  0  0  0  0  0  0  0  0  0  0  0
    4.6223   -8.3832   16.5030 C   0  0  0  0  0  0  0  0  0  0  0  0
   12.4690   -5.2624   19.9024 C   0  0  0  0  0  0  0  0  0  0  0  0
    3.2548   -9.9919   17.4189 C   0  0  0  0  0  0  0  0  0  0  0  0
   12.4767   -4.7393   22.1790 C   0  0  0  0  0  0  0  0  0  0  0  0
    7.8593   -5.3772   15.3569 N   0  0  0  0  0  0  0  0  0  0  0  0
    7.4412   -6.9038   16.9283 C   0  0  0  0  0  0  0  0  0  0  0  0
  1 21  4  0
  1 23  4  0
  2  5  1  0
  2 13  4  0
  2 16  4  0
  3  6  4  0
  3  7  4  0
  4 13  4  0
  4 19  4  0
  4 24  4  0
  6 23  4  0
  7 16  1  0
  7 21  4  0
  8 18  1  0
  9 20  4  0
  9 22  4  0
 10 17  1  0
 10 25  1  0
 11 16  4  0
 11 19  4  0
 12 15  4  0
 12 22  4  0
 14 24  4  0
 14 25  4  0
 15 17  4  0
 17 20  4  0
 18 23  1  0
 19 25  4  0
M  END
$$$$

 Created by Python create_sdf_string function

 25 28  0  0  0  0  0  0  0  0999 V2000
   13.1533   -5.2399   21.0682 C   0  0  0  0  0  0  0  0  0  0  0  0
   10.4729   -4.0295   17.6135 C   0  0  0  0  0  0  0  0  0  0  0  0
   10.4789   -4.3641   20.9564 C   0  0  0  0  0  0  0  0  0  0  0  0
    8.7421   -5.1412   16.3650 C   0  0  0  0  0  0  0  0  0  0  0  0
   11.4353   -2.9204   17.8044 C   0  0  0  0  0  0  0  0  0  0  0  0
   11.1529   -4.3028   22.1277 C   0  0  0  0  0  0  0  0  0  0  0  0
   11.1290   -4.8502   19.8052 C   0  0  0  0  0  0  0  0  0  0  0  0
   12.4329   -4.2159   24.4224 C   0  0  0  0  0  0  0  0  0  0  0  0
    3.4740   -9.0387   16.5022 C   0  0  0  0  0  0  0  0  0  0  0  0
    6.8384   -7.9290   17.5282 N   0  0  0  0  0  0  0  0  0  0  0  0
    9.4126   -5.9853   18.4899 C   0  0  0  0  0  0  0  0  0  0  0  0
    4.2064  -10.3242   18.3302 C   0  0  0  0  0  0  0  0  0  0  0  0
    9.6599   -4.1551   16.4796 N   0  0  0  0  0  0  0  0  0  0  0  0
    7.0644   -6.4612   15.7375 N   0  0  0  0  0  0  0  0  0  0  0  0
    5.3549   -9.6322   18.3190 C   0  0  0  0  0  0  0  0  0  0  0  0
   10.3704   -4.9638   18.6510 C   0  0  0  0  0  0  0  0  0  0  0  0
    5.5935   -8.6419   17.4234 C   0  0  0  0  0  0  0  0  0  0  0  0
   13.0726   -4.6648   23.3394 O   0  0  0  0  0  0  0  0  0  0  0  0
    8.5955   -6.0705   17.3996 C   0  0  0  0  0  0  0  0  0  0  0  0
    4.6223   -8.3832   16.5030 C   0  0  0  0  0  0  0  0  0  0  0  0
   12.4690   -5.2624   19.9024 C   0  0  0  0  0  0  0  0  0  0  0  0
    3.2548   -9.9919   17.4189 C   0  0  0  0  0  0  0  0  0  0  0  0
   12.4767   -4.7393   22.1790 C   0  0  0  0  0  0  0  0  0  0  0  0
    7.8593   -5.3772   15.3569 N   0  0  0  0  0  0  0  0  0  0  0  0
    7.4412   -6.9038   16.9283 C   0  0  0  0  0  0  0  0  0  0  0  0
  1 21  4  0
  1 23  4  0
  2  5  1  0
  2 13  4  0
  2 16  4  0
  3  6  4  0
  3  7  4  0
  4 13  4  0
  4 19  4  0
  4 24  4  0
  6 23  4  0
  7 16  1  0
  7 21  4  0
  8 18  1  0
  9 20  4  0
  9 22  4  0
 10 17  1  0
 10 25  1  0
 11 16  4  0
 11 19  4  0
 12 15  4  0
 12 22  4  0
 14 24  4  0
 14 25  4  0
 15 17  4  0
 17 20  4  0
 18 23  1  0
 19 25  4  0
M  END
$$$$

 Created by Python create_sdf_string function

 25 28  0  0  0  0  0  0  0  0999 V2000
   13.1533   -5.2399   21.0682 C   0  0  0  0  0  0  0  0  0  0  0  0
   10.4729   -4.0295   17.6135 C   0  0  0  0  0  0  0  0  0  0  0  0
   10.4789   -4.3641   20.9564 C   0  0  0  0  0  0  0  0  0  0  0  0
    8.7421   -5.1412   16.3650 C   0  0  0  0  0  0  0  0  0  0  0  0
   11.4353   -2.9204   17.8044 C   0  0  0  0  0  0  0  0  0  0  0  0
   11.1529   -4.3028   22.1277 C   0  0  0  0  0  0  0  0  0  0  0  0
   11.1290   -4.8502   19.8052 C   0  0  0  0  0  0  0  0  0  0  0  0
   12.4329   -4.2159   24.4224 C   0  0  0  0  0  0  0  0  0  0  0  0
    3.4740   -9.0387   16.5022 C   0  0  0  0  0  0  0  0  0  0  0  0
    6.8384   -7.9290   17.5282 N   0  0  0  0  0  0  0  0  0  0  0  0
    9.4126   -5.9853   18.4899 C   0  0  0  0  0  0  0  0  0  0  0  0
    4.2064  -10.3242   18.3302 C   0  0  0  0  0  0  0  0  0  0  0  0
    9.6599   -4.1551   16.4796 N   0  0  0  0  0  0  0  0  0  0  0  0
    7.0644   -6.4612   15.7375 N   0  0  0  0  0  0  0  0  0  0  0  0
    5.3549   -9.6322   18.3190 C   0  0  0  0  0  0  0  0  0  0  0  0
   10.3704   -4.9638   18.6510 C   0  0  0  0  0  0  0  0  0  0  0  0
    5.5935   -8.6419   17.4234 C   0  0  0  0  0  0  0  0  0  0  0  0
   13.0726   -4.6648   23.3394 O   0  0  0  0  0  0  0  0  0  0  0  0
    8.5955   -6.0705   17.3996 C   0  0  0  0  0  0  0  0  0  0  0  0
    4.6223   -8.3832   16.5030 C   0  0  0  0  0  0  0  0  0  0  0  0
   12.4690   -5.2624   19.9024 C   0  0  0  0  0  0  0  0  0  0  0  0
    3.2548   -9.9919   17.4189 C   0  0  0  0  0  0  0  0  0  0  0  0
   12.4767   -4.7393   22.1790 C   0  0  0  0  0  0  0  0  0  0  0  0
    7.8593   -5.3772   15.3569 N   0  0  0  0  0  0  0  0  0  0  0  0
    7.4412   -6.9038   16.9283 C   0  0  0  0  0  0  0  0  0  0  0  0
  1 21  4  0
  1 23  4  0
  2  5  1  0
  2 13  4  0
  2 16  4  0
  3  6  4  0
  3  7  4  0
  4 13  4  0
  4 19  4  0
  4 24  4  0
  6 23  4  0
  7 16  1  0
  7 21  4  0
  8 18  1  0
  9 20  4  0
  9 22  4  0
 10 17  1  0
 10 25  1  0
 11 16  4  0
 11 19  4  0
 12 15  4  0
 12 22  4  0
 14 24  4  0
 14 25  4  0
 15 17  4  0
 17 20  4  0
 18 23  1  0
 19 25  4  0
M  END
$$$$

 Created by Python create_sdf_string function

 25 28  0  0  0  0  0  0  0  0999 V2000
   13.1533   -5.2399   21.0682 C   0  0  0  0  0  0  0  0  0  0  0  0
   10.4729   -4.0295   17.6135 C   0  0  0  0  0  0  0  0  0  0  0  0
   10.4789   -4.3641   20.9564 C   0  0  0  0  0  0  0  0  0  0  0  0
    8.7421   -5.1412   16.3650 C   0  0  0  0  0  0  0  0  0  0  0  0
   11.4353   -2.9204   17.8044 C   0  0  0  0  0  0  0  0  0  0  0  0
   11.1529   -4.3028   22.1277 C   0  0  0  0  0  0  0  0  0  0  0  0
   11.1290   -4.8502   19.8052 C   0  0  0  0  0  0  0  0  0  0  0  0
   12.4329   -4.2159   24.4224 C   0  0  0  0  0  0  0  0  0  0  0  0
    3.4740   -9.0387   16.5022 C   0  0  0  0  0  0  0  0  0  0  0  0
    6.8384   -7.9290   17.5282 N   0  0  0  0  0  0  0  0  0  0  0  0
    9.4126   -5.9853   18.4899 C   0  0  0  0  0  0  0  0  0  0  0  0
    4.2064  -10.3242   18.3302 C   0  0  0  0  0  0  0  0  0  0  0  0
    9.6599   -4.1551   16.4796 N   0  0  0  0  0  0  0  0  0  0  0  0
    7.0644   -6.4612   15.7375 N   0  0  0  0  0  0  0  0  0  0  0  0
    5.3549   -9.6322   18.3190 C   0  0  0  0  0  0  0  0  0  0  0  0
   10.3704   -4.9638   18.6510 C   0  0  0  0  0  0  0  0  0  0  0  0
    5.5935   -8.6419   17.4234 C   0  0  0  0  0  0  0  0  0  0  0  0
   13.0726   -4.6648   23.3394 O   0  0  0  0  0  0  0  0  0  0  0  0
    8.5955   -6.0705   17.3996 C   0  0  0  0  0  0  0  0  0  0  0  0
    4.6223   -8.3832   16.5030 C   0  0  0  0  0  0  0  0  0  0  0  0
   12.4690   -5.2624   19.9024 C   0  0  0  0  0  0  0  0  0  0  0  0
    3.2548   -9.9919   17.4189 C   0  0  0  0  0  0  0  0  0  0  0  0
   12.4767   -4.7393   22.1790 C   0  0  0  0  0  0  0  0  0  0  0  0
    7.8593   -5.3772   15.3569 N   0  0  0  0  0  0  0  0  0  0  0  0
    7.4412   -6.9038   16.9283 C   0  0  0  0  0  0  0  0  0  0  0  0
  1 21  4  0
  1 23  4  0
  2  5  1  0
  2 13  4  0
  2 16  4  0
  3  6  4  0
  3  7  4  0
  4 13  4  0
  4 19  4  0
  4 24  4  0
  6 23  4  0
  7 16  1  0
  7 21  4  0
  8 18  1  0
  9 20  4  0
  9 22  4  0
 10 17  1  0
 10 25  1  0
 11 16  4  0
 11 19  4  0
 12 15  4  0
 12 22  4  0
 14 24  4  0
 14 25  4  0
 15 17  4  0
 17 20  4  0
 18 23  1  0
 19 25  4  0
M  END
$$$$

 Created by Python create_sdf_string function

 25 28  0  0  0  0  0  0  0  0999 V2000
   13.1533   -5.2399   21.0682 C   0  0  0  0  0  0  0  0  0  0  0  0
   10.4729   -4.0295   17.6135 C   0  0  0  0  0  0  0  0  0  0  0  0
   10.4789   -4.3641   20.9564 C   0  0  0  0  0  0  0  0  0  0  0  0
    8.7421   -5.1412   16.3650 C   0  0  0  0  0  0  0  0  0  0  0  0
   11.4353   -2.9204   17.8044 C   0  0  0  0  0  0  0  0  0  0  0  0
   11.1529   -4.3028   22.1277 C   0  0  0  0  0  0  0  0  0  0  0  0
   11.1290   -4.8502   19.8052 C   0  0  0  0  0  0  0  0  0  0  0  0
   12.4329   -4.2159   24.4224 C   0  0  0  0  0  0  0  0  0  0  0  0
    3.4740   -9.0387   16.5022 C   0  0  0  0  0  0  0  0  0  0  0  0
    6.8384   -7.9290   17.5282 N   0  0  0  0  0  0  0  0  0  0  0  0
    9.4126   -5.9853   18.4899 C   0  0  0  0  0  0  0  0  0  0  0  0
    4.2064  -10.3242   18.3302 C   0  0  0  0  0  0  0  0  0  0  0  0
    9.6599   -4.1551   16.4796 N   0  0  0  0  0  0  0  0  0  0  0  0
    7.0644   -6.4612   15.7375 N   0  0  0  0  0  0  0  0  0  0  0  0
    5.3549   -9.6322   18.3190 C   0  0  0  0  0  0  0  0  0  0  0  0
   10.3704   -4.9638   18.6510 C   0  0  0  0  0  0  0  0  0  0  0  0
    5.5935   -8.6419   17.4234 C   0  0  0  0  0  0  0  0  0  0  0  0
   13.0726   -4.6648   23.3394 O   0  0  0  0  0  0  0  0  0  0  0  0
    8.5955   -6.0705   17.3996 C   0  0  0  0  0  0  0  0  0  0  0  0
    4.6223   -8.3832   16.5030 C   0  0  0  0  0  0  0  0  0  0  0  0
   12.4690   -5.2624   19.9024 C   0  0  0  0  0  0  0  0  0  0  0  0
    3.2548   -9.9919   17.4189 C   0  0  0  0  0  0  0  0  0  0  0  0
   12.4767   -4.7393   22.1790 C   0  0  0  0  0  0  0  0  0  0  0  0
    7.8593   -5.3772   15.3569 N   0  0  0  0  0  0  0  0  0  0  0  0
    7.4412   -6.9038   16.9283 C   0  0  0  0  0  0  0  0  0  0  0  0
  1 21  4  0
  1 23  4  0
  2  5  1  0
  2 13  4  0
  2 16  4  0
  3  6  4  0
  3  7  4  0
  4 13  4  0
  4 19  4  0
  4 24  4  0
  6 23  4  0
  7 16  1  0
  7 21  4  0
  8 18  1  0
  9 20  4  0
  9 22  4  0
 10 17  1  0
 10 25  1  0
 11 16  4  0
 11 19  4  0
 12 15  4  0
 12 22  4  0
 14 24  4  0
 14 25  4  0
 15 17  4  0
 17 20  4  0
 18 23  1  0
 19 25  4  0
M  END
$$$$

 Created by Python create_sdf_string function

 25 28  0  0  0  0  0  0  0  0999 V2000
   13.1533   -5.2399   21.0682 C   0  0  0  0  0  0  0  0  0  0  0  0
   10.4729   -4.0295   17.6135 C   0  0  0  0  0  0  0  0  0  0  0  0
   10.4789   -4.3641   20.9564 C   0  0  0  0  0  0  0  0  0  0  0  0
    8.7421   -5.1412   16.3650 C   0  0  0  0  0  0  0  0  0  0  0  0
   11.4353   -2.9204   17.8044 C   0  0  0  0  0  0  0  0  0  0  0  0
   11.1529   -4.3028   22.1277 C   0  0  0  0  0  0  0  0  0  0  0  0
   11.1290   -4.8502   19.8052 C   0  0  0  0  0  0  0  0  0  0  0  0
   12.4329   -4.2159   24.4224 C   0  0  0  0  0  0  0  0  0  0  0  0
    3.4740   -9.0387   16.5022 C   0  0  0  0  0  0  0  0  0  0  0  0
    6.8384   -7.9290   17.5282 N   0  0  0  0  0  0  0  0  0  0  0  0
    9.4126   -5.9853   18.4899 C   0  0  0  0  0  0  0  0  0  0  0  0
    4.2064  -10.3242   18.3302 C   0  0  0  0  0  0  0  0  0  0  0  0
    9.6599   -4.1551   16.4796 N   0  0  0  0  0  0  0  0  0  0  0  0
    7.0644   -6.4612   15.7375 N   0  0  0  0  0  0  0  0  0  0  0  0
    5.3549   -9.6322   18.3190 C   0  0  0  0  0  0  0  0  0  0  0  0
   10.3704   -4.9638   18.6510 C   0  0  0  0  0  0  0  0  0  0  0  0
    5.5935   -8.6419   17.4234 C   0  0  0  0  0  0  0  0  0  0  0  0
   13.0726   -4.6648   23.3394 O   0  0  0  0  0  0  0  0  0  0  0  0
    8.5955   -6.0705   17.3996 C   0  0  0  0  0  0  0  0  0  0  0  0
    4.6223   -8.3832   16.5030 C   0  0  0  0  0  0  0  0  0  0  0  0
   12.4690   -5.2624   19.9024 C   0  0  0  0  0  0  0  0  0  0  0  0
    3.2548   -9.9919   17.4189 C   0  0  0  0  0  0  0  0  0  0  0  0
   12.4767   -4.7393   22.1790 C   0  0  0  0  0  0  0  0  0  0  0  0
    7.8593   -5.3772   15.3569 N   0  0  0  0  0  0  0  0  0  0  0  0
    7.4412   -6.9038   16.9283 C   0  0  0  0  0  0  0  0  0  0  0  0
  1 21  4  0
  1 23  4  0
  2  5  1  0
  2 13  4  0
  2 16  4  0
  3  6  4  0
  3  7  4  0
  4 13  4  0
  4 19  4  0
  4 24  4  0
  6 23  4  0
  7 16  1  0
  7 21  4  0
  8 18  1  0
  9 20  4  0
  9 22  4  0
 10 17  1  0
 10 25  1  0
 11 16  4  0
 11 19  4  0
 12 15  4  0
 12 22  4  0
 14 24  4  0
 14 25  4  0
 15 17  4  0
 17 20  4  0
 18 23  1  0
 19 25  4  0
M  END
$$$$

 Created by Python create_sdf_string function

 25 28  0  0  0  0  0  0  0  0999 V2000
   13.1533   -5.2399   21.0682 C   0  0  0  0  0  0  0  0  0  0  0  0
   10.4729   -4.0295   17.6135 C   0  0  0  0  0  0  0  0  0  0  0  0
   10.4789   -4.3641   20.9564 C   0  0  0  0  0  0  0  0  0  0  0  0
    8.7421   -5.1412   16.3650 C   0  0  0  0  0  0  0  0  0  0  0  0
   11.4353   -2.9204   17.8044 C   0  0  0  0  0  0  0  0  0  0  0  0
   11.1529   -4.3028   22.1277 C   0  0  0  0  0  0  0  0  0  0  0  0
   11.1290   -4.8502   19.8052 C   0  0  0  0  0  0  0  0  0  0  0  0
   12.4329   -4.2159   24.4224 C   0  0  0  0  0  0  0  0  0  0  0  0
    3.4740   -9.0387   16.5022 C   0  0  0  0  0  0  0  0  0  0  0  0
    6.8384   -7.9290   17.5282 N   0  0  0  0  0  0  0  0  0  0  0  0
    9.4126   -5.9853   18.4899 C   0  0  0  0  0  0  0  0  0  0  0  0
    4.2064  -10.3242   18.3302 C   0  0  0  0  0  0  0  0  0  0  0  0
    9.6599   -4.1551   16.4796 N   0  0  0  0  0  0  0  0  0  0  0  0
    7.0644   -6.4612   15.7375 N   0  0  0  0  0  0  0  0  0  0  0  0
    5.3549   -9.6322   18.3190 C   0  0  0  0  0  0  0  0  0  0  0  0
   10.3704   -4.9638   18.6510 C   0  0  0  0  0  0  0  0  0  0  0  0
    5.5935   -8.6419   17.4234 C   0  0  0  0  0  0  0  0  0  0  0  0
   13.0726   -4.6648   23.3394 O   0  0  0  0  0  0  0  0  0  0  0  0
    8.5955   -6.0705   17.3996 C   0  0  0  0  0  0  0  0  0  0  0  0
    4.6223   -8.3832   16.5030 C   0  0  0  0  0  0  0  0  0  0  0  0
   12.4690   -5.2624   19.9024 C   0  0  0  0  0  0  0  0  0  0  0  0
    3.2548   -9.9919   17.4189 C   0  0  0  0  0  0  0  0  0  0  0  0
   12.4767   -4.7393   22.1790 C   0  0  0  0  0  0  0  0  0  0  0  0
    7.8593   -5.3772   15.3569 N   0  0  0  0  0  0  0  0  0  0  0  0
    7.4412   -6.9038   16.9283 C   0  0  0  0  0  0  0  0  0  0  0  0
  1 21  4  0
  1 23  4  0
  2  5  1  0
  2 13  4  0
  2 16  4  0
  3  6  4  0
  3  7  4  0
  4 13  4  0
  4 19  4  0
  4 24  4  0
  6 23  4  0
  7 16  1  0
  7 21  4  0
  8 18  1  0
  9 20  4  0
  9 22  4  0
 10 17  1  0
 10 25  1  0
 11 16  4  0
 11 19  4  0
 12 15  4  0
 12 22  4  0
 14 24  4  0
 14 25  4  0
 15 17  4  0
 17 20  4  0
 18 23  1  0
 19 25  4  0
M  END
$$$$

 Created by Python create_sdf_string function

 25 28  0  0  0  0  0  0  0  0999 V2000
   13.1533   -5.2399   21.0682 C   0  0  0  0  0  0  0  0  0  0  0  0
   10.4729   -4.0295   17.6135 C   0  0  0  0  0  0  0  0  0  0  0  0
   10.4789   -4.3641   20.9564 C   0  0  0  0  0  0  0  0  0  0  0  0
    8.7421   -5.1412   16.3650 C   0  0  0  0  0  0  0  0  0  0  0  0
   11.4353   -2.9204   17.8044 C   0  0  0  0  0  0  0  0  0  0  0  0
   11.1529   -4.3028   22.1277 C   0  0  0  0  0  0  0  0  0  0  0  0
   11.1290   -4.8502   19.8052 C   0  0  0  0  0  0  0  0  0  0  0  0
   12.4329   -4.2159   24.4224 C   0  0  0  0  0  0  0  0  0  0  0  0
    3.4740   -9.0387   16.5022 C   0  0  0  0  0  0  0  0  0  0  0  0
    6.8384   -7.9290   17.5282 N   0  0  0  0  0  0  0  0  0  0  0  0
    9.4126   -5.9853   18.4899 C   0  0  0  0  0  0  0  0  0  0  0  0
    4.2064  -10.3242   18.3302 C   0  0  0  0  0  0  0  0  0  0  0  0
    9.6599   -4.1551   16.4796 N   0  0  0  0  0  0  0  0  0  0  0  0
    7.0644   -6.4612   15.7375 N   0  0  0  0  0  0  0  0  0  0  0  0
    5.3549   -9.6322   18.3190 C   0  0  0  0  0  0  0  0  0  0  0  0
   10.3704   -4.9638   18.6510 C   0  0  0  0  0  0  0  0  0  0  0  0
    5.5935   -8.6419   17.4234 C   0  0  0  0  0  0  0  0  0  0  0  0
   13.0726   -4.6648   23.3394 O   0  0  0  0  0  0  0  0  0  0  0  0
    8.5955   -6.0705   17.3996 C   0  0  0  0  0  0  0  0  0  0  0  0
    4.6223   -8.3832   16.5030 C   0  0  0  0  0  0  0  0  0  0  0  0
   12.4690   -5.2624   19.9024 C   0  0  0  0  0  0  0  0  0  0  0  0
    3.2548   -9.9919   17.4189 C   0  0  0  0  0  0  0  0  0  0  0  0
   12.4767   -4.7393   22.1790 C   0  0  0  0  0  0  0  0  0  0  0  0
    7.8593   -5.3772   15.3569 N   0  0  0  0  0  0  0  0  0  0  0  0
    7.4412   -6.9038   16.9283 C   0  0  0  0  0  0  0  0  0  0  0  0
  1 21  4  0
  1 23  4  0
  2  5  1  0
  2 13  4  0
  2 16  4  0
  3  6  4  0
  3  7  4  0
  4 13  4  0
  4 19  4  0
  4 24  4  0
  6 23  4  0
  7 16  1  0
  7 21  4  0
  8 18  1  0
  9 20  4  0
  9 22  4  0
 10 17  1  0
 10 25  1  0
 11 16  4  0
 11 19  4  0
 12 15  4  0
 12 22  4  0
 14 24  4  0
 14 25  4  0
 15 17  4  0
 17 20  4  0
 18 23  1  0
 19 25  4  0
M  END
$$$$

 Created by Python create_sdf_string function

 25 28  0  0  0  0  0  0  0  0999 V2000
   13.1533   -5.2399   21.0682 C   0  0  0  0  0  0  0  0  0  0  0  0
   10.4729   -4.0295   17.6135 C   0  0  0  0  0  0  0  0  0  0  0  0
   10.4789   -4.3641   20.9564 C   0  0  0  0  0  0  0  0  0  0  0  0
    8.7421   -5.1412   16.3650 C   0  0  0  0  0  0  0  0  0  0  0  0
   11.4353   -2.9204   17.8044 C   0  0  0  0  0  0  0  0  0  0  0  0
   11.1529   -4.3028   22.1277 C   0  0  0  0  0  0  0  0  0  0  0  0
   11.1290   -4.8502   19.8052 C   0  0  0  0  0  0  0  0  0  0  0  0
   12.4329   -4.2159   24.4224 C   0  0  0  0  0  0  0  0  0  0  0  0
    3.4740   -9.0387   16.5022 C   0  0  0  0  0  0  0  0  0  0  0  0
    6.8384   -7.9290   17.5282 N   0  0  0  0  0  0  0  0  0  0  0  0
    9.4126   -5.9853   18.4899 C   0  0  0  0  0  0  0  0  0  0  0  0
    4.2064  -10.3242   18.3302 C   0  0  0  0  0  0  0  0  0  0  0  0
    9.6599   -4.1551   16.4796 N   0  0  0  0  0  0  0  0  0  0  0  0
    7.0644   -6.4612   15.7375 N   0  0  0  0  0  0  0  0  0  0  0  0
    5.3549   -9.6322   18.3190 C   0  0  0  0  0  0  0  0  0  0  0  0
   10.3704   -4.9638   18.6510 C   0  0  0  0  0  0  0  0  0  0  0  0
    5.5935   -8.6419   17.4234 C   0  0  0  0  0  0  0  0  0  0  0  0
   13.0726   -4.6648   23.3394 O   0  0  0  0  0  0  0  0  0  0  0  0
    8.5955   -6.0705   17.3996 C   0  0  0  0  0  0  0  0  0  0  0  0
    4.6223   -8.3832   16.5030 C   0  0  0  0  0  0  0  0  0  0  0  0
   12.4690   -5.2624   19.9024 C   0  0  0  0  0  0  0  0  0  0  0  0
    3.2548   -9.9919   17.4189 C   0  0  0  0  0  0  0  0  0  0  0  0
   12.4767   -4.7393   22.1790 C   0  0  0  0  0  0  0  0  0  0  0  0
    7.8593   -5.3772   15.3569 N   0  0  0  0  0  0  0  0  0  0  0  0
    7.4412   -6.9038   16.9283 C   0  0  0  0  0  0  0  0  0  0  0  0
  1 21  4  0
  1 23  4  0
  2  5  1  0
  2 13  4  0
  2 16  4  0
  3  6  4  0
  3  7  4  0
  4 13  4  0
  4 19  4  0
  4 24  4  0
  6 23  4  0
  7 16  1  0
  7 21  4  0
  8 18  1  0
  9 20  4  0
  9 22  4  0
 10 17  1  0
 10 25  1  0
 11 16  4  0
 11 19  4  0
 12 15  4  0
 12 22  4  0
 14 24  4  0
 14 25  4  0
 15 17  4  0
 17 20  4  0
 18 23  1  0
 19 25  4  0
M  END
$$$$

 Created by Python create_sdf_string function

 25 28  0  0  0  0  0  0  0  0999 V2000
   13.1533   -5.2399   21.0682 C   0  0  0  0  0  0  0  0  0  0  0  0
   10.4729   -4.0295   17.6135 C   0  0  0  0  0  0  0  0  0  0  0  0
   10.4789   -4.3641   20.9564 C   0  0  0  0  0  0  0  0  0  0  0  0
    8.7421   -5.1412   16.3650 C   0  0  0  0  0  0  0  0  0  0  0  0
   11.4353   -2.9204   17.8044 C   0  0  0  0  0  0  0  0  0  0  0  0
   11.1529   -4.3028   22.1277 C   0  0  0  0  0  0  0  0  0  0  0  0
   11.1290   -4.8502   19.8052 C   0  0  0  0  0  0  0  0  0  0  0  0
   12.4329   -4.2159   24.4224 C   0  0  0  0  0  0  0  0  0  0  0  0
    3.4740   -9.0387   16.5022 C   0  0  0  0  0  0  0  0  0  0  0  0
    6.8384   -7.9290   17.5282 N   0  0  0  0  0  0  0  0  0  0  0  0
    9.4126   -5.9853   18.4899 C   0  0  0  0  0  0  0  0  0  0  0  0
    4.2064  -10.3242   18.3302 C   0  0  0  0  0  0  0  0  0  0  0  0
    9.6599   -4.1551   16.4796 N   0  0  0  0  0  0  0  0  0  0  0  0
    7.0644   -6.4612   15.7375 N   0  0  0  0  0  0  0  0  0  0  0  0
    5.3549   -9.6322   18.3190 C   0  0  0  0  0  0  0  0  0  0  0  0
   10.3704   -4.9638   18.6510 C   0  0  0  0  0  0  0  0  0  0  0  0
    5.5935   -8.6419   17.4234 C   0  0  0  0  0  0  0  0  0  0  0  0
   13.0726   -4.6648   23.3394 O   0  0  0  0  0  0  0  0  0  0  0  0
    8.5955   -6.0705   17.3996 C   0  0  0  0  0  0  0  0  0  0  0  0
    4.6223   -8.3832   16.5030 C   0  0  0  0  0  0  0  0  0  0  0  0
   12.4690   -5.2624   19.9024 C   0  0  0  0  0  0  0  0  0  0  0  0
    3.2548   -9.9919   17.4189 C   0  0  0  0  0  0  0  0  0  0  0  0
   12.4767   -4.7393   22.1790 C   0  0  0  0  0  0  0  0  0  0  0  0
    7.8593   -5.3772   15.3569 N   0  0  0  0  0  0  0  0  0  0  0  0
    7.4412   -6.9038   16.9283 C   0  0  0  0  0  0  0  0  0  0  0  0
  1 21  4  0
  1 23  4  0
  2  5  1  0
  2 13  4  0
  2 16  4  0
  3  6  4  0
  3  7  4  0
  4 13  4  0
  4 19  4  0
  4 24  4  0
  6 23  4  0
  7 16  1  0
  7 21  4  0
  8 18  1  0
  9 20  4  0
  9 22  4  0
 10 17  1  0
 10 25  1  0
 11 16  4  0
 11 19  4  0
 12 15  4  0
 12 22  4  0
 14 24  4  0
 14 25  4  0
 15 17  4  0
 17 20  4  0
 18 23  1  0
 19 25  4  0
M  END
$$$$

 Created by Python create_sdf_string function

 25 28  0  0  0  0  0  0  0  0999 V2000
   13.1533   -5.2399   21.0682 C   0  0  0  0  0  0  0  0  0  0  0  0
   10.4729   -4.0295   17.6135 C   0  0  0  0  0  0  0  0  0  0  0  0
   10.4789   -4.3641   20.9564 C   0  0  0  0  0  0  0  0  0  0  0  0
    8.7421   -5.1412   16.3650 C   0  0  0  0  0  0  0  0  0  0  0  0
   11.4353   -2.9204   17.8044 C   0  0  0  0  0  0  0  0  0  0  0  0
   11.1529   -4.3028   22.1277 C   0  0  0  0  0  0  0  0  0  0  0  0
   11.1290   -4.8502   19.8052 C   0  0  0  0  0  0  0  0  0  0  0  0
   12.4329   -4.2159   24.4224 C   0  0  0  0  0  0  0  0  0  0  0  0
    3.4740   -9.0387   16.5022 C   0  0  0  0  0  0  0  0  0  0  0  0
    6.8384   -7.9290   17.5282 N   0  0  0  0  0  0  0  0  0  0  0  0
    9.4126   -5.9853   18.4899 C   0  0  0  0  0  0  0  0  0  0  0  0
    4.2064  -10.3242   18.3302 C   0  0  0  0  0  0  0  0  0  0  0  0
    9.6599   -4.1551   16.4796 N   0  0  0  0  0  0  0  0  0  0  0  0
    7.0644   -6.4612   15.7375 N   0  0  0  0  0  0  0  0  0  0  0  0
    5.3549   -9.6322   18.3190 C   0  0  0  0  0  0  0  0  0  0  0  0
   10.3704   -4.9638   18.6510 C   0  0  0  0  0  0  0  0  0  0  0  0
    5.5935   -8.6419   17.4234 C   0  0  0  0  0  0  0  0  0  0  0  0
   13.0726   -4.6648   23.3394 O   0  0  0  0  0  0  0  0  0  0  0  0
    8.5955   -6.0705   17.3996 C   0  0  0  0  0  0  0  0  0  0  0  0
    4.6223   -8.3832   16.5030 C   0  0  0  0  0  0  0  0  0  0  0  0
   12.4690   -5.2624   19.9024 C   0  0  0  0  0  0  0  0  0  0  0  0
    3.2548   -9.9919   17.4189 C   0  0  0  0  0  0  0  0  0  0  0  0
   12.4767   -4.7393   22.1790 C   0  0  0  0  0  0  0  0  0  0  0  0
    7.8593   -5.3772   15.3569 N   0  0  0  0  0  0  0  0  0  0  0  0
    7.4412   -6.9038   16.9283 C   0  0  0  0  0  0  0  0  0  0  0  0
  1 21  4  0
  1 23  4  0
  2  5  1  0
  2 13  4  0
  2 16  4  0
  3  6  4  0
  3  7  4  0
  4 13  4  0
  4 19  4  0
  4 24  4  0
  6 23  4  0
  7 16  1  0
  7 21  4  0
  8 18  1  0
  9 20  4  0
  9 22  4  0
 10 17  1  0
 10 25  1  0
 11 16  4  0
 11 19  4  0
 12 15  4  0
 12 22  4  0
 14 24  4  0
 14 25  4  0
 15 17  4  0
 17 20  4  0
 18 23  1  0
 19 25  4  0
M  END
$$$$

 Created by Python create_sdf_string function

 25 28  0  0  0  0  0  0  0  0999 V2000
   13.1533   -5.2399   21.0682 C   0  0  0  0  0  0  0  0  0  0  0  0
   10.4729   -4.0295   17.6135 C   0  0  0  0  0  0  0  0  0  0  0  0
   10.4789   -4.3641   20.9564 C   0  0  0  0  0  0  0  0  0  0  0  0
    8.7421   -5.1412   16.3650 C   0  0  0  0  0  0  0  0  0  0  0  0
   11.4353   -2.9204   17.8044 C   0  0  0  0  0  0  0  0  0  0  0  0
   11.1529   -4.3028   22.1277 C   0  0  0  0  0  0  0  0  0  0  0  0
   11.1290   -4.8502   19.8052 C   0  0  0  0  0  0  0  0  0  0  0  0
   12.4329   -4.2159   24.4224 C   0  0  0  0  0  0  0  0  0  0  0  0
    3.4740   -9.0387   16.5022 C   0  0  0  0  0  0  0  0  0  0  0  0
    6.8384   -7.9290   17.5282 N   0  0  0  0  0  0  0  0  0  0  0  0
    9.4126   -5.9853   18.4899 C   0  0  0  0  0  0  0  0  0  0  0  0
    4.2064  -10.3242   18.3302 C   0  0  0  0  0  0  0  0  0  0  0  0
    9.6599   -4.1551   16.4796 N   0  0  0  0  0  0  0  0  0  0  0  0
    7.0644   -6.4612   15.7375 N   0  0  0  0  0  0  0  0  0  0  0  0
    5.3549   -9.6322   18.3190 C   0  0  0  0  0  0  0  0  0  0  0  0
   10.3704   -4.9638   18.6510 C   0  0  0  0  0  0  0  0  0  0  0  0
    5.5935   -8.6419   17.4234 C   0  0  0  0  0  0  0  0  0  0  0  0
   13.0726   -4.6648   23.3394 O   0  0  0  0  0  0  0  0  0  0  0  0
    8.5955   -6.0705   17.3996 C   0  0  0  0  0  0  0  0  0  0  0  0
    4.6223   -8.3832   16.5030 C   0  0  0  0  0  0  0  0  0  0  0  0
   12.4690   -5.2624   19.9024 C   0  0  0  0  0  0  0  0  0  0  0  0
    3.2548   -9.9919   17.4189 C   0  0  0  0  0  0  0  0  0  0  0  0
   12.4767   -4.7393   22.1790 C   0  0  0  0  0  0  0  0  0  0  0  0
    7.8593   -5.3772   15.3569 N   0  0  0  0  0  0  0  0  0  0  0  0
    7.4412   -6.9038   16.9283 C   0  0  0  0  0  0  0  0  0  0  0  0
  1 21  4  0
  1 23  4  0
  2  5  1  0
  2 13  4  0
  2 16  4  0
  3  6  4  0
  3  7  4  0
  4 13  4  0
  4 19  4  0
  4 24  4  0
  6 23  4  0
  7 16  1  0
  7 21  4  0
  8 18  1  0
  9 20  4  0
  9 22  4  0
 10 17  1  0
 10 25  1  0
 11 16  4  0
 11 19  4  0
 12 15  4  0
 12 22  4  0
 14 24  4  0
 14 25  4  0
 15 17  4  0
 17 20  4  0
 18 23  1  0
 19 25  4  0
M  END
$$$$

 Created by Python create_sdf_string function

 25 28  0  0  0  0  0  0  0  0999 V2000
   13.1533   -5.2399   21.0682 C   0  0  0  0  0  0  0  0  0  0  0  0
   10.4729   -4.0295   17.6135 C   0  0  0  0  0  0  0  0  0  0  0  0
   10.4789   -4.3641   20.9564 C   0  0  0  0  0  0  0  0  0  0  0  0
    8.7421   -5.1412   16.3650 C   0  0  0  0  0  0  0  0  0  0  0  0
   11.4353   -2.9204   17.8044 C   0  0  0  0  0  0  0  0  0  0  0  0
   11.1529   -4.3028   22.1277 C   0  0  0  0  0  0  0  0  0  0  0  0
   11.1290   -4.8502   19.8052 C   0  0  0  0  0  0  0  0  0  0  0  0
   12.4329   -4.2159   24.4224 C   0  0  0  0  0  0  0  0  0  0  0  0
    3.4740   -9.0387   16.5022 C   0  0  0  0  0  0  0  0  0  0  0  0
    6.8384   -7.9290   17.5282 N   0  0  0  0  0  0  0  0  0  0  0  0
    9.4126   -5.9853   18.4899 C   0  0  0  0  0  0  0  0  0  0  0  0
    4.2064  -10.3242   18.3302 C   0  0  0  0  0  0  0  0  0  0  0  0
    9.6599   -4.1551   16.4796 N   0  0  0  0  0  0  0  0  0  0  0  0
    7.0644   -6.4612   15.7375 N   0  0  0  0  0  0  0  0  0  0  0  0
    5.3549   -9.6322   18.3190 C   0  0  0  0  0  0  0  0  0  0  0  0
   10.3704   -4.9638   18.6510 C   0  0  0  0  0  0  0  0  0  0  0  0
    5.5935   -8.6419   17.4234 C   0  0  0  0  0  0  0  0  0  0  0  0
   13.0726   -4.6648   23.3394 O   0  0  0  0  0  0  0  0  0  0  0  0
    8.5955   -6.0705   17.3996 C   0  0  0  0  0  0  0  0  0  0  0  0
    4.6223   -8.3832   16.5030 C   0  0  0  0  0  0  0  0  0  0  0  0
   12.4690   -5.2624   19.9024 C   0  0  0  0  0  0  0  0  0  0  0  0
    3.2548   -9.9919   17.4189 C   0  0  0  0  0  0  0  0  0  0  0  0
   12.4767   -4.7393   22.1790 C   0  0  0  0  0  0  0  0  0  0  0  0
    7.8593   -5.3772   15.3569 N   0  0  0  0  0  0  0  0  0  0  0  0
    7.4412   -6.9038   16.9283 C   0  0  0  0  0  0  0  0  0  0  0  0
  1 21  4  0
  1 23  4  0
  2  5  1  0
  2 13  4  0
  2 16  4  0
  3  6  4  0
  3  7  4  0
  4 13  4  0
  4 19  4  0
  4 24  4  0
  6 23  4  0
  7 16  1  0
  7 21  4  0
  8 18  1  0
  9 20  4  0
  9 22  4  0
 10 17  1  0
 10 25  1  0
 11 16  4  0
 11 19  4  0
 12 15  4  0
 12 22  4  0
 14 24  4  0
 14 25  4  0
 15 17  4  0
 17 20  4  0
 18 23  1  0
 19 25  4  0
M  END
$$$$

 Created by Python create_sdf_string function

 25 28  0  0  0  0  0  0  0  0999 V2000
   13.1533   -5.2399   21.0682 C   0  0  0  0  0  0  0  0  0  0  0  0
   10.4729   -4.0295   17.6135 C   0  0  0  0  0  0  0  0  0  0  0  0
   10.4789   -4.3641   20.9564 C   0  0  0  0  0  0  0  0  0  0  0  0
    8.7421   -5.1412   16.3650 C   0  0  0  0  0  0  0  0  0  0  0  0
   11.4353   -2.9204   17.8044 C   0  0  0  0  0  0  0  0  0  0  0  0
   11.1529   -4.3028   22.1277 C   0  0  0  0  0  0  0  0  0  0  0  0
   11.1290   -4.8502   19.8052 C   0  0  0  0  0  0  0  0  0  0  0  0
   12.4329   -4.2159   24.4224 C   0  0  0  0  0  0  0  0  0  0  0  0
    3.4740   -9.0387   16.5022 C   0  0  0  0  0  0  0  0  0  0  0  0
    6.8384   -7.9290   17.5282 N   0  0  0  0  0  0  0  0  0  0  0  0
    9.4126   -5.9853   18.4899 C   0  0  0  0  0  0  0  0  0  0  0  0
    4.2064  -10.3242   18.3302 C   0  0  0  0  0  0  0  0  0  0  0  0
    9.6599   -4.1551   16.4796 N   0  0  0  0  0  0  0  0  0  0  0  0
    7.0644   -6.4612   15.7375 N   0  0  0  0  0  0  0  0  0  0  0  0
    5.3549   -9.6322   18.3190 C   0  0  0  0  0  0  0  0  0  0  0  0
   10.3704   -4.9638   18.6510 C   0  0  0  0  0  0  0  0  0  0  0  0
    5.5935   -8.6419   17.4234 C   0  0  0  0  0  0  0  0  0  0  0  0
   13.0726   -4.6648   23.3394 O   0  0  0  0  0  0  0  0  0  0  0  0
    8.5955   -6.0705   17.3996 C   0  0  0  0  0  0  0  0  0  0  0  0
    4.6223   -8.3832   16.5030 C   0  0  0  0  0  0  0  0  0  0  0  0
   12.4690   -5.2624   19.9024 C   0  0  0  0  0  0  0  0  0  0  0  0
    3.2548   -9.9919   17.4189 C   0  0  0  0  0  0  0  0  0  0  0  0
   12.4767   -4.7393   22.1790 C   0  0  0  0  0  0  0  0  0  0  0  0
    7.8593   -5.3772   15.3569 N   0  0  0  0  0  0  0  0  0  0  0  0
    7.4412   -6.9038   16.9283 C   0  0  0  0  0  0  0  0  0  0  0  0
  1 21  4  0
  1 23  4  0
  2  5  1  0
  2 13  4  0
  2 16  4  0
  3  6  4  0
  3  7  4  0
  4 13  4  0
  4 19  4  0
  4 24  4  0
  6 23  4  0
  7 16  1  0
  7 21  4  0
  8 18  1  0
  9 20  4  0
  9 22  4  0
 10 17  1  0
 10 25  1  0
 11 16  4  0
 11 19  4  0
 12 15  4  0
 12 22  4  0
 14 24  4  0
 14 25  4  0
 15 17  4  0
 17 20  4  0
 18 23  1  0
 19 25  4  0
M  END
$$$$

 Created by Python create_sdf_string function

 25 28  0  0  0  0  0  0  0  0999 V2000
   13.1533   -5.2399   21.0682 C   0  0  0  0  0  0  0  0  0  0  0  0
   10.4729   -4.0295   17.6135 C   0  0  0  0  0  0  0  0  0  0  0  0
   10.4789   -4.3641   20.9564 C   0  0  0  0  0  0  0  0  0  0  0  0
    8.7421   -5.1412   16.3650 C   0  0  0  0  0  0  0  0  0  0  0  0
   11.4353   -2.9204   17.8044 C   0  0  0  0  0  0  0  0  0  0  0  0
   11.1529   -4.3028   22.1277 C   0  0  0  0  0  0  0  0  0  0  0  0
   11.1290   -4.8502   19.8052 C   0  0  0  0  0  0  0  0  0  0  0  0
   12.4329   -4.2159   24.4224 C   0  0  0  0  0  0  0  0  0  0  0  0
    3.4740   -9.0387   16.5022 C   0  0  0  0  0  0  0  0  0  0  0  0
    6.8384   -7.9290   17.5282 N   0  0  0  0  0  0  0  0  0  0  0  0
    9.4126   -5.9853   18.4899 C   0  0  0  0  0  0  0  0  0  0  0  0
    4.2064  -10.3242   18.3302 C   0  0  0  0  0  0  0  0  0  0  0  0
    9.6599   -4.1551   16.4796 N   0  0  0  0  0  0  0  0  0  0  0  0
    7.0644   -6.4612   15.7375 N   0  0  0  0  0  0  0  0  0  0  0  0
    5.3549   -9.6322   18.3190 C   0  0  0  0  0  0  0  0  0  0  0  0
   10.3704   -4.9638   18.6510 C   0  0  0  0  0  0  0  0  0  0  0  0
    5.5935   -8.6419   17.4234 C   0  0  0  0  0  0  0  0  0  0  0  0
   13.0726   -4.6648   23.3394 O   0  0  0  0  0  0  0  0  0  0  0  0
    8.5955   -6.0705   17.3996 C   0  0  0  0  0  0  0  0  0  0  0  0
    4.6223   -8.3832   16.5030 C   0  0  0  0  0  0  0  0  0  0  0  0
   12.4690   -5.2624   19.9024 C   0  0  0  0  0  0  0  0  0  0  0  0
    3.2548   -9.9919   17.4189 C   0  0  0  0  0  0  0  0  0  0  0  0
   12.4767   -4.7393   22.1790 C   0  0  0  0  0  0  0  0  0  0  0  0
    7.8593   -5.3772   15.3569 N   0  0  0  0  0  0  0  0  0  0  0  0
    7.4412   -6.9038   16.9283 C   0  0  0  0  0  0  0  0  0  0  0  0
  1 21  4  0
  1 23  4  0
  2  5  1  0
  2 13  4  0
  2 16  4  0
  3  6  4  0
  3  7  4  0
  4 13  4  0
  4 19  4  0
  4 24  4  0
  6 23  4  0
  7 16  1  0
  7 21  4  0
  8 18  1  0
  9 20  4  0
  9 22  4  0
 10 17  1  0
 10 25  1  0
 11 16  4  0
 11 19  4  0
 12 15  4  0
 12 22  4  0
 14 24  4  0
 14 25  4  0
 15 17  4  0
 17 20  4  0
 18 23  1  0
 19 25  4  0
M  END
$$$$

 Created by Python create_sdf_string function

 25 28  0  0  0  0  0  0  0  0999 V2000
   13.1533   -5.2399   21.0682 C   0  0  0  0  0  0  0  0  0  0  0  0
   10.4729   -4.0295   17.6135 C   0  0  0  0  0  0  0  0  0  0  0  0
   10.4789   -4.3641   20.9564 C   0  0  0  0  0  0  0  0  0  0  0  0
    8.7421   -5.1412   16.3650 C   0  0  0  0  0  0  0  0  0  0  0  0
   11.4353   -2.9204   17.8044 C   0  0  0  0  0  0  0  0  0  0  0  0
   11.1529   -4.3028   22.1277 C   0  0  0  0  0  0  0  0  0  0  0  0
   11.1290   -4.8502   19.8052 C   0  0  0  0  0  0  0  0  0  0  0  0
   12.4329   -4.2159   24.4224 C   0  0  0  0  0  0  0  0  0  0  0  0
    3.4740   -9.0387   16.5022 C   0  0  0  0  0  0  0  0  0  0  0  0
    6.8384   -7.9290   17.5282 N   0  0  0  0  0  0  0  0  0  0  0  0
    9.4126   -5.9853   18.4899 C   0  0  0  0  0  0  0  0  0  0  0  0
    4.2064  -10.3242   18.3302 C   0  0  0  0  0  0  0  0  0  0  0  0
    9.6599   -4.1551   16.4796 N   0  0  0  0  0  0  0  0  0  0  0  0
    7.0644   -6.4612   15.7375 N   0  0  0  0  0  0  0  0  0  0  0  0
    5.3549   -9.6322   18.3190 C   0  0  0  0  0  0  0  0  0  0  0  0
   10.3704   -4.9638   18.6510 C   0  0  0  0  0  0  0  0  0  0  0  0
    5.5935   -8.6419   17.4234 C   0  0  0  0  0  0  0  0  0  0  0  0
   13.0726   -4.6648   23.3394 O   0  0  0  0  0  0  0  0  0  0  0  0
    8.5955   -6.0705   17.3996 C   0  0  0  0  0  0  0  0  0  0  0  0
    4.6223   -8.3832   16.5030 C   0  0  0  0  0  0  0  0  0  0  0  0
   12.4690   -5.2624   19.9024 C   0  0  0  0  0  0  0  0  0  0  0  0
    3.2548   -9.9919   17.4189 C   0  0  0  0  0  0  0  0  0  0  0  0
   12.4767   -4.7393   22.1790 C   0  0  0  0  0  0  0  0  0  0  0  0
    7.8593   -5.3772   15.3569 N   0  0  0  0  0  0  0  0  0  0  0  0
    7.4412   -6.9038   16.9283 C   0  0  0  0  0  0  0  0  0  0  0  0
  1 21  4  0
  1 23  4  0
  2  5  1  0
  2 13  4  0
  2 16  4  0
  3  6  4  0
  3  7  4  0
  4 13  4  0
  4 19  4  0
  4 24  4  0
  6 23  4  0
  7 16  1  0
  7 21  4  0
  8 18  1  0
  9 20  4  0
  9 22  4  0
 10 17  1  0
 10 25  1  0
 11 16  4  0
 11 19  4  0
 12 15  4  0
 12 22  4  0
 14 24  4  0
 14 25  4  0
 15 17  4  0
 17 20  4  0
 18 23  1  0
 19 25  4  0
M  END
$$$$

 Created by Python create_sdf_string function

 25 28  0  0  0  0  0  0  0  0999 V2000
   13.1533   -5.2399   21.0682 C   0  0  0  0  0  0  0  0  0  0  0  0
   10.4729   -4.0295   17.6135 C   0  0  0  0  0  0  0  0  0  0  0  0
   10.4789   -4.3641   20.9564 C   0  0  0  0  0  0  0  0  0  0  0  0
    8.7421   -5.1412   16.3650 C   0  0  0  0  0  0  0  0  0  0  0  0
   11.4353   -2.9204   17.8044 C   0  0  0  0  0  0  0  0  0  0  0  0
   11.1529   -4.3028   22.1277 C   0  0  0  0  0  0  0  0  0  0  0  0
   11.1290   -4.8502   19.8052 C   0  0  0  0  0  0  0  0  0  0  0  0
   12.4329   -4.2159   24.4224 C   0  0  0  0  0  0  0  0  0  0  0  0
    3.4740   -9.0387   16.5022 C   0  0  0  0  0  0  0  0  0  0  0  0
    6.8384   -7.9290   17.5282 N   0  0  0  0  0  0  0  0  0  0  0  0
    9.4126   -5.9853   18.4899 C   0  0  0  0  0  0  0  0  0  0  0  0
    4.2064  -10.3242   18.3302 C   0  0  0  0  0  0  0  0  0  0  0  0
    9.6599   -4.1551   16.4796 N   0  0  0  0  0  0  0  0  0  0  0  0
    7.0644   -6.4612   15.7375 N   0  0  0  0  0  0  0  0  0  0  0  0
    5.3549   -9.6322   18.3190 C   0  0  0  0  0  0  0  0  0  0  0  0
   10.3704   -4.9638   18.6510 C   0  0  0  0  0  0  0  0  0  0  0  0
    5.5935   -8.6419   17.4234 C   0  0  0  0  0  0  0  0  0  0  0  0
   13.0726   -4.6648   23.3394 O   0  0  0  0  0  0  0  0  0  0  0  0
    8.5955   -6.0705   17.3996 C   0  0  0  0  0  0  0  0  0  0  0  0
    4.6223   -8.3832   16.5030 C   0  0  0  0  0  0  0  0  0  0  0  0
   12.4690   -5.2624   19.9024 C   0  0  0  0  0  0  0  0  0  0  0  0
    3.2548   -9.9919   17.4189 C   0  0  0  0  0  0  0  0  0  0  0  0
   12.4767   -4.7393   22.1790 C   0  0  0  0  0  0  0  0  0  0  0  0
    7.8593   -5.3772   15.3569 N   0  0  0  0  0  0  0  0  0  0  0  0
    7.4412   -6.9038   16.9283 C   0  0  0  0  0  0  0  0  0  0  0  0
  1 21  4  0
  1 23  4  0
  2  5  1  0
  2 13  4  0
  2 16  4  0
  3  6  4  0
  3  7  4  0
  4 13  4  0
  4 19  4  0
  4 24  4  0
  6 23  4  0
  7 16  1  0
  7 21  4  0
  8 18  1  0
  9 20  4  0
  9 22  4  0
 10 17  1  0
 10 25  1  0
 11 16  4  0
 11 19  4  0
 12 15  4  0
 12 22  4  0
 14 24  4  0
 14 25  4  0
 15 17  4  0
 17 20  4  0
 18 23  1  0
 19 25  4  0
M  END
$$$$

 Created by Python create_sdf_string function

 25 28  0  0  0  0  0  0  0  0999 V2000
   13.1533   -5.2399   21.0682 C   0  0  0  0  0  0  0  0  0  0  0  0
   10.4729   -4.0295   17.6135 C   0  0  0  0  0  0  0  0  0  0  0  0
   10.4789   -4.3641   20.9564 C   0  0  0  0  0  0  0  0  0  0  0  0
    8.7421   -5.1412   16.3650 C   0  0  0  0  0  0  0  0  0  0  0  0
   11.4353   -2.9204   17.8044 C   0  0  0  0  0  0  0  0  0  0  0  0
   11.1529   -4.3028   22.1277 C   0  0  0  0  0  0  0  0  0  0  0  0
   11.1290   -4.8502   19.8052 C   0  0  0  0  0  0  0  0  0  0  0  0
   12.4329   -4.2159   24.4224 C   0  0  0  0  0  0  0  0  0  0  0  0
    3.4740   -9.0387   16.5022 C   0  0  0  0  0  0  0  0  0  0  0  0
    6.8384   -7.9290   17.5282 N   0  0  0  0  0  0  0  0  0  0  0  0
    9.4126   -5.9853   18.4899 C   0  0  0  0  0  0  0  0  0  0  0  0
    4.2064  -10.3242   18.3302 C   0  0  0  0  0  0  0  0  0  0  0  0
    9.6599   -4.1551   16.4796 N   0  0  0  0  0  0  0  0  0  0  0  0
    7.0644   -6.4612   15.7375 N   0  0  0  0  0  0  0  0  0  0  0  0
    5.3549   -9.6322   18.3190 C   0  0  0  0  0  0  0  0  0  0  0  0
   10.3704   -4.9638   18.6510 C   0  0  0  0  0  0  0  0  0  0  0  0
    5.5935   -8.6419   17.4234 C   0  0  0  0  0  0  0  0  0  0  0  0
   13.0726   -4.6648   23.3394 O   0  0  0  0  0  0  0  0  0  0  0  0
    8.5955   -6.0705   17.3996 C   0  0  0  0  0  0  0  0  0  0  0  0
    4.6223   -8.3832   16.5030 C   0  0  0  0  0  0  0  0  0  0  0  0
   12.4690   -5.2624   19.9024 C   0  0  0  0  0  0  0  0  0  0  0  0
    3.2548   -9.9919   17.4189 C   0  0  0  0  0  0  0  0  0  0  0  0
   12.4767   -4.7393   22.1790 C   0  0  0  0  0  0  0  0  0  0  0  0
    7.8593   -5.3772   15.3569 N   0  0  0  0  0  0  0  0  0  0  0  0
    7.4412   -6.9038   16.9283 C   0  0  0  0  0  0  0  0  0  0  0  0
  1 21  4  0
  1 23  4  0
  2  5  1  0
  2 13  4  0
  2 16  4  0
  3  6  4  0
  3  7  4  0
  4 13  4  0
  4 19  4  0
  4 24  4  0
  6 23  4  0
  7 16  1  0
  7 21  4  0
  8 18  1  0
  9 20  4  0
  9 22  4  0
 10 17  1  0
 10 25  1  0
 11 16  4  0
 11 19  4  0
 12 15  4  0
 12 22  4  0
 14 24  4  0
 14 25  4  0
 15 17  4  0
 17 20  4  0
 18 23  1  0
 19 25  4  0
M  END
$$$$

 Created by Python create_sdf_string function

 25 28  0  0  0  0  0  0  0  0999 V2000
   13.1533   -5.2399   21.0682 C   0  0  0  0  0  0  0  0  0  0  0  0
   10.4729   -4.0295   17.6135 C   0  0  0  0  0  0  0  0  0  0  0  0
   10.4789   -4.3641   20.9564 C   0  0  0  0  0  0  0  0  0  0  0  0
    8.7421   -5.1412   16.3650 C   0  0  0  0  0  0  0  0  0  0  0  0
   11.4353   -2.9204   17.8044 C   0  0  0  0  0  0  0  0  0  0  0  0
   11.1529   -4.3028   22.1277 C   0  0  0  0  0  0  0  0  0  0  0  0
   11.1290   -4.8502   19.8052 C   0  0  0  0  0  0  0  0  0  0  0  0
   12.4329   -4.2159   24.4224 C   0  0  0  0  0  0  0  0  0  0  0  0
    3.4740   -9.0387   16.5022 C   0  0  0  0  0  0  0  0  0  0  0  0
    6.8384   -7.9290   17.5282 N   0  0  0  0  0  0  0  0  0  0  0  0
    9.4126   -5.9853   18.4899 C   0  0  0  0  0  0  0  0  0  0  0  0
    4.2064  -10.3242   18.3302 C   0  0  0  0  0  0  0  0  0  0  0  0
    9.6599   -4.1551   16.4796 N   0  0  0  0  0  0  0  0  0  0  0  0
    7.0644   -6.4612   15.7375 N   0  0  0  0  0  0  0  0  0  0  0  0
    5.3549   -9.6322   18.3190 C   0  0  0  0  0  0  0  0  0  0  0  0
   10.3704   -4.9638   18.6510 C   0  0  0  0  0  0  0  0  0  0  0  0
    5.5935   -8.6419   17.4234 C   0  0  0  0  0  0  0  0  0  0  0  0
   13.0726   -4.6648   23.3394 O   0  0  0  0  0  0  0  0  0  0  0  0
    8.5955   -6.0705   17.3996 C   0  0  0  0  0  0  0  0  0  0  0  0
    4.6223   -8.3832   16.5030 C   0  0  0  0  0  0  0  0  0  0  0  0
   12.4690   -5.2624   19.9024 C   0  0  0  0  0  0  0  0  0  0  0  0
    3.2548   -9.9919   17.4189 C   0  0  0  0  0  0  0  0  0  0  0  0
   12.4767   -4.7393   22.1790 C   0  0  0  0  0  0  0  0  0  0  0  0
    7.8593   -5.3772   15.3569 N   0  0  0  0  0  0  0  0  0  0  0  0
    7.4412   -6.9038   16.9283 C   0  0  0  0  0  0  0  0  0  0  0  0
  1 21  4  0
  1 23  4  0
  2  5  1  0
  2 13  4  0
  2 16  4  0
  3  6  4  0
  3  7  4  0
  4 13  4  0
  4 19  4  0
  4 24  4  0
  6 23  4  0
  7 16  1  0
  7 21  4  0
  8 18  1  0
  9 20  4  0
  9 22  4  0
 10 17  1  0
 10 25  1  0
 11 16  4  0
 11 19  4  0
 12 15  4  0
 12 22  4  0
 14 24  4  0
 14 25  4  0
 15 17  4  0
 17 20  4  0
 18 23  1  0
 19 25  4  0
M  END
$$$$

 Created by Python create_sdf_string function

 25 28  0  0  0  0  0  0  0  0999 V2000
   13.1533   -5.2399   21.0682 C   0  0  0  0  0  0  0  0  0  0  0  0
   10.4729   -4.0295   17.6135 C   0  0  0  0  0  0  0  0  0  0  0  0
   10.4789   -4.3641   20.9564 C   0  0  0  0  0  0  0  0  0  0  0  0
    8.7421   -5.1412   16.3650 C   0  0  0  0  0  0  0  0  0  0  0  0
   11.4353   -2.9204   17.8044 C   0  0  0  0  0  0  0  0  0  0  0  0
   11.1529   -4.3028   22.1277 C   0  0  0  0  0  0  0  0  0  0  0  0
   11.1290   -4.8502   19.8052 C   0  0  0  0  0  0  0  0  0  0  0  0
   12.4329   -4.2159   24.4224 C   0  0  0  0  0  0  0  0  0  0  0  0
    3.4740   -9.0387   16.5022 C   0  0  0  0  0  0  0  0  0  0  0  0
    6.8384   -7.9290   17.5282 N   0  0  0  0  0  0  0  0  0  0  0  0
    9.4126   -5.9853   18.4899 C   0  0  0  0  0  0  0  0  0  0  0  0
    4.2064  -10.3242   18.3302 C   0  0  0  0  0  0  0  0  0  0  0  0
    9.6599   -4.1551   16.4796 N   0  0  0  0  0  0  0  0  0  0  0  0
    7.0644   -6.4612   15.7375 N   0  0  0  0  0  0  0  0  0  0  0  0
    5.3549   -9.6322   18.3190 C   0  0  0  0  0  0  0  0  0  0  0  0
   10.3704   -4.9638   18.6510 C   0  0  0  0  0  0  0  0  0  0  0  0
    5.5935   -8.6419   17.4234 C   0  0  0  0  0  0  0  0  0  0  0  0
   13.0726   -4.6648   23.3394 O   0  0  0  0  0  0  0  0  0  0  0  0
    8.5955   -6.0705   17.3996 C   0  0  0  0  0  0  0  0  0  0  0  0
    4.6223   -8.3832   16.5030 C   0  0  0  0  0  0  0  0  0  0  0  0
   12.4690   -5.2624   19.9024 C   0  0  0  0  0  0  0  0  0  0  0  0
    3.2548   -9.9919   17.4189 C   0  0  0  0  0  0  0  0  0  0  0  0
   12.4767   -4.7393   22.1790 C   0  0  0  0  0  0  0  0  0  0  0  0
    7.8593   -5.3772   15.3569 N   0  0  0  0  0  0  0  0  0  0  0  0
    7.4412   -6.9038   16.9283 C   0  0  0  0  0  0  0  0  0  0  0  0
  1 21  4  0
  1 23  4  0
  2  5  1  0
  2 13  4  0
  2 16  4  0
  3  6  4  0
  3  7  4  0
  4 13  4  0
  4 19  4  0
  4 24  4  0
  6 23  4  0
  7 16  1  0
  7 21  4  0
  8 18  1  0
  9 20  4  0
  9 22  4  0
 10 17  1  0
 10 25  1  0
 11 16  4  0
 11 19  4  0
 12 15  4  0
 12 22  4  0
 14 24  4  0
 14 25  4  0
 15 17  4  0
 17 20  4  0
 18 23  1  0
 19 25  4  0
M  END
$$$$

 Created by Python create_sdf_string function

 25 28  0  0  0  0  0  0  0  0999 V2000
   13.1533   -5.2399   21.0682 C   0  0  0  0  0  0  0  0  0  0  0  0
   10.4729   -4.0295   17.6135 C   0  0  0  0  0  0  0  0  0  0  0  0
   10.4789   -4.3641   20.9564 C   0  0  0  0  0  0  0  0  0  0  0  0
    8.7421   -5.1412   16.3650 C   0  0  0  0  0  0  0  0  0  0  0  0
   11.4353   -2.9204   17.8044 C   0  0  0  0  0  0  0  0  0  0  0  0
   11.1529   -4.3028   22.1277 C   0  0  0  0  0  0  0  0  0  0  0  0
   11.1290   -4.8502   19.8052 C   0  0  0  0  0  0  0  0  0  0  0  0
   12.4329   -4.2159   24.4224 C   0  0  0  0  0  0  0  0  0  0  0  0
    3.4740   -9.0387   16.5022 C   0  0  0  0  0  0  0  0  0  0  0  0
    6.8384   -7.9290   17.5282 N   0  0  0  0  0  0  0  0  0  0  0  0
    9.4126   -5.9853   18.4899 C   0  0  0  0  0  0  0  0  0  0  0  0
    4.2064  -10.3242   18.3302 C   0  0  0  0  0  0  0  0  0  0  0  0
    9.6599   -4.1551   16.4796 N   0  0  0  0  0  0  0  0  0  0  0  0
    7.0644   -6.4612   15.7375 N   0  0  0  0  0  0  0  0  0  0  0  0
    5.3549   -9.6322   18.3190 C   0  0  0  0  0  0  0  0  0  0  0  0
   10.3704   -4.9638   18.6510 C   0  0  0  0  0  0  0  0  0  0  0  0
    5.5935   -8.6419   17.4234 C   0  0  0  0  0  0  0  0  0  0  0  0
   13.0726   -4.6648   23.3394 O   0  0  0  0  0  0  0  0  0  0  0  0
    8.5955   -6.0705   17.3996 C   0  0  0  0  0  0  0  0  0  0  0  0
    4.6223   -8.3832   16.5030 C   0  0  0  0  0  0  0  0  0  0  0  0
   12.4690   -5.2624   19.9024 C   0  0  0  0  0  0  0  0  0  0  0  0
    3.2548   -9.9919   17.4189 C   0  0  0  0  0  0  0  0  0  0  0  0
   12.4767   -4.7393   22.1790 C   0  0  0  0  0  0  0  0  0  0  0  0
    7.8593   -5.3772   15.3569 N   0  0  0  0  0  0  0  0  0  0  0  0
    7.4412   -6.9038   16.9283 C   0  0  0  0  0  0  0  0  0  0  0  0
  1 21  4  0
  1 23  4  0
  2  5  1  0
  2 13  4  0
  2 16  4  0
  3  6  4  0
  3  7  4  0
  4 13  4  0
  4 19  4  0
  4 24  4  0
  6 23  4  0
  7 16  1  0
  7 21  4  0
  8 18  1  0
  9 20  4  0
  9 22  4  0
 10 17  1  0
 10 25  1  0
 11 16  4  0
 11 19  4  0
 12 15  4  0
 12 22  4  0
 14 24  4  0
 14 25  4  0
 15 17  4  0
 17 20  4  0
 18 23  1  0
 19 25  4  0
M  END
$$$$

 Created by Python create_sdf_string function

 25 28  0  0  0  0  0  0  0  0999 V2000
   13.1533   -5.2399   21.0682 C   0  0  0  0  0  0  0  0  0  0  0  0
   10.4729   -4.0295   17.6135 C   0  0  0  0  0  0  0  0  0  0  0  0
   10.4789   -4.3641   20.9564 C   0  0  0  0  0  0  0  0  0  0  0  0
    8.7421   -5.1412   16.3650 C   0  0  0  0  0  0  0  0  0  0  0  0
   11.4353   -2.9204   17.8044 C   0  0  0  0  0  0  0  0  0  0  0  0
   11.1529   -4.3028   22.1277 C   0  0  0  0  0  0  0  0  0  0  0  0
   11.1290   -4.8502   19.8052 C   0  0  0  0  0  0  0  0  0  0  0  0
   12.4329   -4.2159   24.4224 C   0  0  0  0  0  0  0  0  0  0  0  0
    3.4740   -9.0387   16.5022 C   0  0  0  0  0  0  0  0  0  0  0  0
    6.8384   -7.9290   17.5282 N   0  0  0  0  0  0  0  0  0  0  0  0
    9.4126   -5.9853   18.4899 C   0  0  0  0  0  0  0  0  0  0  0  0
    4.2064  -10.3242   18.3302 C   0  0  0  0  0  0  0  0  0  0  0  0
    9.6599   -4.1551   16.4796 N   0  0  0  0  0  0  0  0  0  0  0  0
    7.0644   -6.4612   15.7375 N   0  0  0  0  0  0  0  0  0  0  0  0
    5.3549   -9.6322   18.3190 C   0  0  0  0  0  0  0  0  0  0  0  0
   10.3704   -4.9638   18.6510 C   0  0  0  0  0  0  0  0  0  0  0  0
    5.5935   -8.6419   17.4234 C   0  0  0  0  0  0  0  0  0  0  0  0
   13.0726   -4.6648   23.3394 O   0  0  0  0  0  0  0  0  0  0  0  0
    8.5955   -6.0705   17.3996 C   0  0  0  0  0  0  0  0  0  0  0  0
    4.6223   -8.3832   16.5030 C   0  0  0  0  0  0  0  0  0  0  0  0
   12.4690   -5.2624   19.9024 C   0  0  0  0  0  0  0  0  0  0  0  0
    3.2548   -9.9919   17.4189 C   0  0  0  0  0  0  0  0  0  0  0  0
   12.4767   -4.7393   22.1790 C   0  0  0  0  0  0  0  0  0  0  0  0
    7.8593   -5.3772   15.3569 N   0  0  0  0  0  0  0  0  0  0  0  0
    7.4412   -6.9038   16.9283 C   0  0  0  0  0  0  0  0  0  0  0  0
  1 21  4  0
  1 23  4  0
  2  5  1  0
  2 13  4  0
  2 16  4  0
  3  6  4  0
  3  7  4  0
  4 13  4  0
  4 19  4  0
  4 24  4  0
  6 23  4  0
  7 16  1  0
  7 21  4  0
  8 18  1  0
  9 20  4  0
  9 22  4  0
 10 17  1  0
 10 25  1  0
 11 16  4  0
 11 19  4  0
 12 15  4  0
 12 22  4  0
 14 24  4  0
 14 25  4  0
 15 17  4  0
 17 20  4  0
 18 23  1  0
 19 25  4  0
M  END
$$$$

 Created by Python create_sdf_string function

 25 28  0  0  0  0  0  0  0  0999 V2000
   13.1533   -5.2399   21.0682 C   0  0  0  0  0  0  0  0  0  0  0  0
   10.4729   -4.0295   17.6135 C   0  0  0  0  0  0  0  0  0  0  0  0
   10.4789   -4.3641   20.9564 C   0  0  0  0  0  0  0  0  0  0  0  0
    8.7421   -5.1412   16.3650 C   0  0  0  0  0  0  0  0  0  0  0  0
   11.4353   -2.9204   17.8044 C   0  0  0  0  0  0  0  0  0  0  0  0
   11.1529   -4.3028   22.1277 C   0  0  0  0  0  0  0  0  0  0  0  0
   11.1290   -4.8502   19.8052 C   0  0  0  0  0  0  0  0  0  0  0  0
   12.4329   -4.2159   24.4224 C   0  0  0  0  0  0  0  0  0  0  0  0
    3.4740   -9.0387   16.5022 C   0  0  0  0  0  0  0  0  0  0  0  0
    6.8384   -7.9290   17.5282 N   0  0  0  0  0  0  0  0  0  0  0  0
    9.4126   -5.9853   18.4899 C   0  0  0  0  0  0  0  0  0  0  0  0
    4.2064  -10.3242   18.3302 C   0  0  0  0  0  0  0  0  0  0  0  0
    9.6599   -4.1551   16.4796 N   0  0  0  0  0  0  0  0  0  0  0  0
    7.0644   -6.4612   15.7375 N   0  0  0  0  0  0  0  0  0  0  0  0
    5.3549   -9.6322   18.3190 C   0  0  0  0  0  0  0  0  0  0  0  0
   10.3704   -4.9638   18.6510 C   0  0  0  0  0  0  0  0  0  0  0  0
    5.5935   -8.6419   17.4234 C   0  0  0  0  0  0  0  0  0  0  0  0
   13.0726   -4.6648   23.3394 O   0  0  0  0  0  0  0  0  0  0  0  0
    8.5955   -6.0705   17.3996 C   0  0  0  0  0  0  0  0  0  0  0  0
    4.6223   -8.3832   16.5030 C   0  0  0  0  0  0  0  0  0  0  0  0
   12.4690   -5.2624   19.9024 C   0  0  0  0  0  0  0  0  0  0  0  0
    3.2548   -9.9919   17.4189 C   0  0  0  0  0  0  0  0  0  0  0  0
   12.4767   -4.7393   22.1790 C   0  0  0  0  0  0  0  0  0  0  0  0
    7.8593   -5.3772   15.3569 N   0  0  0  0  0  0  0  0  0  0  0  0
    7.4412   -6.9038   16.9283 C   0  0  0  0  0  0  0  0  0  0  0  0
  1 21  4  0
  1 23  4  0
  2  5  1  0
  2 13  4  0
  2 16  4  0
  3  6  4  0
  3  7  4  0
  4 13  4  0
  4 19  4  0
  4 24  4  0
  6 23  4  0
  7 16  1  0
  7 21  4  0
  8 18  1  0
  9 20  4  0
  9 22  4  0
 10 17  1  0
 10 25  1  0
 11 16  4  0
 11 19  4  0
 12 15  4  0
 12 22  4  0
 14 24  4  0
 14 25  4  0
 15 17  4  0
 17 20  4  0
 18 23  1  0
 19 25  4  0
M  END
$$$$

 Created by Python create_sdf_string function

 25 28  0  0  0  0  0  0  0  0999 V2000
   13.1533   -5.2399   21.0682 C   0  0  0  0  0  0  0  0  0  0  0  0
   10.4729   -4.0295   17.6135 C   0  0  0  0  0  0  0  0  0  0  0  0
   10.4789   -4.3641   20.9564 C   0  0  0  0  0  0  0  0  0  0  0  0
    8.7421   -5.1412   16.3650 C   0  0  0  0  0  0  0  0  0  0  0  0
   11.4353   -2.9204   17.8044 C   0  0  0  0  0  0  0  0  0  0  0  0
   11.1529   -4.3028   22.1277 C   0  0  0  0  0  0  0  0  0  0  0  0
   11.1290   -4.8502   19.8052 C   0  0  0  0  0  0  0  0  0  0  0  0
   12.4329   -4.2159   24.4224 C   0  0  0  0  0  0  0  0  0  0  0  0
    3.4740   -9.0387   16.5022 C   0  0  0  0  0  0  0  0  0  0  0  0
    6.8384   -7.9290   17.5282 N   0  0  0  0  0  0  0  0  0  0  0  0
    9.4126   -5.9853   18.4899 C   0  0  0  0  0  0  0  0  0  0  0  0
    4.2064  -10.3242   18.3302 C   0  0  0  0  0  0  0  0  0  0  0  0
    9.6599   -4.1551   16.4796 N   0  0  0  0  0  0  0  0  0  0  0  0
    7.0644   -6.4612   15.7375 N   0  0  0  0  0  0  0  0  0  0  0  0
    5.3549   -9.6322   18.3190 C   0  0  0  0  0  0  0  0  0  0  0  0
   10.3704   -4.9638   18.6510 C   0  0  0  0  0  0  0  0  0  0  0  0
    5.5935   -8.6419   17.4234 C   0  0  0  0  0  0  0  0  0  0  0  0
   13.0726   -4.6648   23.3394 O   0  0  0  0  0  0  0  0  0  0  0  0
    8.5955   -6.0705   17.3996 C   0  0  0  0  0  0  0  0  0  0  0  0
    4.6223   -8.3832   16.5030 C   0  0  0  0  0  0  0  0  0  0  0  0
   12.4690   -5.2624   19.9024 C   0  0  0  0  0  0  0  0  0  0  0  0
    3.2548   -9.9919   17.4189 C   0  0  0  0  0  0  0  0  0  0  0  0
   12.4767   -4.7393   22.1790 C   0  0  0  0  0  0  0  0  0  0  0  0
    7.8593   -5.3772   15.3569 N   0  0  0  0  0  0  0  0  0  0  0  0
    7.4412   -6.9038   16.9283 C   0  0  0  0  0  0  0  0  0  0  0  0
  1 21  4  0
  1 23  4  0
  2  5  1  0
  2 13  4  0
  2 16  4  0
  3  6  4  0
  3  7  4  0
  4 13  4  0
  4 19  4  0
  4 24  4  0
  6 23  4  0
  7 16  1  0
  7 21  4  0
  8 18  1  0
  9 20  4  0
  9 22  4  0
 10 17  1  0
 10 25  1  0
 11 16  4  0
 11 19  4  0
 12 15  4  0
 12 22  4  0
 14 24  4  0
 14 25  4  0
 15 17  4  0
 17 20  4  0
 18 23  1  0
 19 25  4  0
M  END
$$$$

 Created by Python create_sdf_string function

 25 28  0  0  0  0  0  0  0  0999 V2000
   13.1533   -5.2399   21.0682 C   0  0  0  0  0  0  0  0  0  0  0  0
   10.4729   -4.0295   17.6135 C   0  0  0  0  0  0  0  0  0  0  0  0
   10.4789   -4.3641   20.9564 C   0  0  0  0  0  0  0  0  0  0  0  0
    8.7421   -5.1412   16.3650 C   0  0  0  0  0  0  0  0  0  0  0  0
   11.4353   -2.9204   17.8044 C   0  0  0  0  0  0  0  0  0  0  0  0
   11.1529   -4.3028   22.1277 C   0  0  0  0  0  0  0  0  0  0  0  0
   11.1290   -4.8502   19.8052 C   0  0  0  0  0  0  0  0  0  0  0  0
   12.4329   -4.2159   24.4224 C   0  0  0  0  0  0  0  0  0  0  0  0
    3.4740   -9.0387   16.5022 C   0  0  0  0  0  0  0  0  0  0  0  0
    6.8384   -7.9290   17.5282 N   0  0  0  0  0  0  0  0  0  0  0  0
    9.4126   -5.9853   18.4899 C   0  0  0  0  0  0  0  0  0  0  0  0
    4.2064  -10.3242   18.3302 C   0  0  0  0  0  0  0  0  0  0  0  0
    9.6599   -4.1551   16.4796 N   0  0  0  0  0  0  0  0  0  0  0  0
    7.0644   -6.4612   15.7375 N   0  0  0  0  0  0  0  0  0  0  0  0
    5.3549   -9.6322   18.3190 C   0  0  0  0  0  0  0  0  0  0  0  0
   10.3704   -4.9638   18.6510 C   0  0  0  0  0  0  0  0  0  0  0  0
    5.5935   -8.6419   17.4234 C   0  0  0  0  0  0  0  0  0  0  0  0
   13.0726   -4.6648   23.3394 O   0  0  0  0  0  0  0  0  0  0  0  0
    8.5955   -6.0705   17.3996 C   0  0  0  0  0  0  0  0  0  0  0  0
    4.6223   -8.3832   16.5030 C   0  0  0  0  0  0  0  0  0  0  0  0
   12.4690   -5.2624   19.9024 C   0  0  0  0  0  0  0  0  0  0  0  0
    3.2548   -9.9919   17.4189 C   0  0  0  0  0  0  0  0  0  0  0  0
   12.4767   -4.7393   22.1790 C   0  0  0  0  0  0  0  0  0  0  0  0
    7.8593   -5.3772   15.3569 N   0  0  0  0  0  0  0  0  0  0  0  0
    7.4412   -6.9038   16.9283 C   0  0  0  0  0  0  0  0  0  0  0  0
  1 21  4  0
  1 23  4  0
  2  5  1  0
  2 13  4  0
  2 16  4  0
  3  6  4  0
  3  7  4  0
  4 13  4  0
  4 19  4  0
  4 24  4  0
  6 23  4  0
  7 16  1  0
  7 21  4  0
  8 18  1  0
  9 20  4  0
  9 22  4  0
 10 17  1  0
 10 25  1  0
 11 16  4  0
 11 19  4  0
 12 15  4  0
 12 22  4  0
 14 24  4  0
 14 25  4  0
 15 17  4  0
 17 20  4  0
 18 23  1  0
 19 25  4  0
M  END
$$$$

 Created by Python create_sdf_string function

 25 28  0  0  0  0  0  0  0  0999 V2000
   13.1533   -5.2399   21.0682 C   0  0  0  0  0  0  0  0  0  0  0  0
   10.4729   -4.0295   17.6135 C   0  0  0  0  0  0  0  0  0  0  0  0
   10.4789   -4.3641   20.9564 C   0  0  0  0  0  0  0  0  0  0  0  0
    8.7421   -5.1412   16.3650 C   0  0  0  0  0  0  0  0  0  0  0  0
   11.4353   -2.9204   17.8044 C   0  0  0  0  0  0  0  0  0  0  0  0
   11.1529   -4.3028   22.1277 C   0  0  0  0  0  0  0  0  0  0  0  0
   11.1290   -4.8502   19.8052 C   0  0  0  0  0  0  0  0  0  0  0  0
   12.4329   -4.2159   24.4224 C   0  0  0  0  0  0  0  0  0  0  0  0
    3.4740   -9.0387   16.5022 C   0  0  0  0  0  0  0  0  0  0  0  0
    6.8384   -7.9290   17.5282 N   0  0  0  0  0  0  0  0  0  0  0  0
    9.4126   -5.9853   18.4899 C   0  0  0  0  0  0  0  0  0  0  0  0
    4.2064  -10.3242   18.3302 C   0  0  0  0  0  0  0  0  0  0  0  0
    9.6599   -4.1551   16.4796 N   0  0  0  0  0  0  0  0  0  0  0  0
    7.0644   -6.4612   15.7375 N   0  0  0  0  0  0  0  0  0  0  0  0
    5.3549   -9.6322   18.3190 C   0  0  0  0  0  0  0  0  0  0  0  0
   10.3704   -4.9638   18.6510 C   0  0  0  0  0  0  0  0  0  0  0  0
    5.5935   -8.6419   17.4234 C   0  0  0  0  0  0  0  0  0  0  0  0
   13.0726   -4.6648   23.3394 O   0  0  0  0  0  0  0  0  0  0  0  0
    8.5955   -6.0705   17.3996 C   0  0  0  0  0  0  0  0  0  0  0  0
    4.6223   -8.3832   16.5030 C   0  0  0  0  0  0  0  0  0  0  0  0
   12.4690   -5.2624   19.9024 C   0  0  0  0  0  0  0  0  0  0  0  0
    3.2548   -9.9919   17.4189 C   0  0  0  0  0  0  0  0  0  0  0  0
   12.4767   -4.7393   22.1790 C   0  0  0  0  0  0  0  0  0  0  0  0
    7.8593   -5.3772   15.3569 N   0  0  0  0  0  0  0  0  0  0  0  0
    7.4412   -6.9038   16.9283 C   0  0  0  0  0  0  0  0  0  0  0  0
  1 21  4  0
  1 23  4  0
  2  5  1  0
  2 13  4  0
  2 16  4  0
  3  6  4  0
  3  7  4  0
  4 13  4  0
  4 19  4  0
  4 24  4  0
  6 23  4  0
  7 16  1  0
  7 21  4  0
  8 18  1  0
  9 20  4  0
  9 22  4  0
 10 17  1  0
 10 25  1  0
 11 16  4  0
 11 19  4  0
 12 15  4  0
 12 22  4  0
 14 24  4  0
 14 25  4  0
 15 17  4  0
 17 20  4  0
 18 23  1  0
 19 25  4  0
M  END
$$$$

 Created by Python create_sdf_string function

 25 28  0  0  0  0  0  0  0  0999 V2000
   13.1533   -5.2399   21.0682 C   0  0  0  0  0  0  0  0  0  0  0  0
   10.4729   -4.0295   17.6135 C   0  0  0  0  0  0  0  0  0  0  0  0
   10.4789   -4.3641   20.9564 C   0  0  0  0  0  0  0  0  0  0  0  0
    8.7421   -5.1412   16.3650 C   0  0  0  0  0  0  0  0  0  0  0  0
   11.4353   -2.9204   17.8044 C   0  0  0  0  0  0  0  0  0  0  0  0
   11.1529   -4.3028   22.1277 C   0  0  0  0  0  0  0  0  0  0  0  0
   11.1290   -4.8502   19.8052 C   0  0  0  0  0  0  0  0  0  0  0  0
   12.4329   -4.2159   24.4224 C   0  0  0  0  0  0  0  0  0  0  0  0
    3.4740   -9.0387   16.5022 C   0  0  0  0  0  0  0  0  0  0  0  0
    6.8384   -7.9290   17.5282 N   0  0  0  0  0  0  0  0  0  0  0  0
    9.4126   -5.9853   18.4899 C   0  0  0  0  0  0  0  0  0  0  0  0
    4.2064  -10.3242   18.3302 C   0  0  0  0  0  0  0  0  0  0  0  0
    9.6599   -4.1551   16.4796 N   0  0  0  0  0  0  0  0  0  0  0  0
    7.0644   -6.4612   15.7375 N   0  0  0  0  0  0  0  0  0  0  0  0
    5.3549   -9.6322   18.3190 C   0  0  0  0  0  0  0  0  0  0  0  0
   10.3704   -4.9638   18.6510 C   0  0  0  0  0  0  0  0  0  0  0  0
    5.5935   -8.6419   17.4234 C   0  0  0  0  0  0  0  0  0  0  0  0
   13.0726   -4.6648   23.3394 O   0  0  0  0  0  0  0  0  0  0  0  0
    8.5955   -6.0705   17.3996 C   0  0  0  0  0  0  0  0  0  0  0  0
    4.6223   -8.3832   16.5030 C   0  0  0  0  0  0  0  0  0  0  0  0
   12.4690   -5.2624   19.9024 C   0  0  0  0  0  0  0  0  0  0  0  0
    3.2548   -9.9919   17.4189 C   0  0  0  0  0  0  0  0  0  0  0  0
   12.4767   -4.7393   22.1790 C   0  0  0  0  0  0  0  0  0  0  0  0
    7.8593   -5.3772   15.3569 N   0  0  0  0  0  0  0  0  0  0  0  0
    7.4412   -6.9038   16.9283 C   0  0  0  0  0  0  0  0  0  0  0  0
  1 21  4  0
  1 23  4  0
  2  5  1  0
  2 13  4  0
  2 16  4  0
  3  6  4  0
  3  7  4  0
  4 13  4  0
  4 19  4  0
  4 24  4  0
  6 23  4  0
  7 16  1  0
  7 21  4  0
  8 18  1  0
  9 20  4  0
  9 22  4  0
 10 17  1  0
 10 25  1  0
 11 16  4  0
 11 19  4  0
 12 15  4  0
 12 22  4  0
 14 24  4  0
 14 25  4  0
 15 17  4  0
 17 20  4  0
 18 23  1  0
 19 25  4  0
M  END
$$$$

 Created by Python create_sdf_string function

 25 28  0  0  0  0  0  0  0  0999 V2000
   13.1533   -5.2399   21.0682 C   0  0  0  0  0  0  0  0  0  0  0  0
   10.4729   -4.0295   17.6135 C   0  0  0  0  0  0  0  0  0  0  0  0
   10.4789   -4.3641   20.9564 C   0  0  0  0  0  0  0  0  0  0  0  0
    8.7421   -5.1412   16.3650 C   0  0  0  0  0  0  0  0  0  0  0  0
   11.4353   -2.9204   17.8044 C   0  0  0  0  0  0  0  0  0  0  0  0
   11.1529   -4.3028   22.1277 C   0  0  0  0  0  0  0  0  0  0  0  0
   11.1290   -4.8502   19.8052 C   0  0  0  0  0  0  0  0  0  0  0  0
   12.4329   -4.2159   24.4224 C   0  0  0  0  0  0  0  0  0  0  0  0
    3.4740   -9.0387   16.5022 C   0  0  0  0  0  0  0  0  0  0  0  0
    6.8384   -7.9290   17.5282 N   0  0  0  0  0  0  0  0  0  0  0  0
    9.4126   -5.9853   18.4899 C   0  0  0  0  0  0  0  0  0  0  0  0
    4.2064  -10.3242   18.3302 C   0  0  0  0  0  0  0  0  0  0  0  0
    9.6599   -4.1551   16.4796 N   0  0  0  0  0  0  0  0  0  0  0  0
    7.0644   -6.4612   15.7375 N   0  0  0  0  0  0  0  0  0  0  0  0
    5.3549   -9.6322   18.3190 C   0  0  0  0  0  0  0  0  0  0  0  0
   10.3704   -4.9638   18.6510 C   0  0  0  0  0  0  0  0  0  0  0  0
    5.5935   -8.6419   17.4234 C   0  0  0  0  0  0  0  0  0  0  0  0
   13.0726   -4.6648   23.3394 O   0  0  0  0  0  0  0  0  0  0  0  0
    8.5955   -6.0705   17.3996 C   0  0  0  0  0  0  0  0  0  0  0  0
    4.6223   -8.3832   16.5030 C   0  0  0  0  0  0  0  0  0  0  0  0
   12.4690   -5.2624   19.9024 C   0  0  0  0  0  0  0  0  0  0  0  0
    3.2548   -9.9919   17.4189 C   0  0  0  0  0  0  0  0  0  0  0  0
   12.4767   -4.7393   22.1790 C   0  0  0  0  0  0  0  0  0  0  0  0
    7.8593   -5.3772   15.3569 N   0  0  0  0  0  0  0  0  0  0  0  0
    7.4412   -6.9038   16.9283 C   0  0  0  0  0  0  0  0  0  0  0  0
  1 21  4  0
  1 23  4  0
  2  5  1  0
  2 13  4  0
  2 16  4  0
  3  6  4  0
  3  7  4  0
  4 13  4  0
  4 19  4  0
  4 24  4  0
  6 23  4  0
  7 16  1  0
  7 21  4  0
  8 18  1  0
  9 20  4  0
  9 22  4  0
 10 17  1  0
 10 25  1  0
 11 16  4  0
 11 19  4  0
 12 15  4  0
 12 22  4  0
 14 24  4  0
 14 25  4  0
 15 17  4  0
 17 20  4  0
 18 23  1  0
 19 25  4  0
M  END
$$$$

 Created by Python create_sdf_string function

 25 28  0  0  0  0  0  0  0  0999 V2000
   13.1533   -5.2399   21.0682 C   0  0  0  0  0  0  0  0  0  0  0  0
   10.4729   -4.0295   17.6135 C   0  0  0  0  0  0  0  0  0  0  0  0
   10.4789   -4.3641   20.9564 C   0  0  0  0  0  0  0  0  0  0  0  0
    8.7421   -5.1412   16.3650 C   0  0  0  0  0  0  0  0  0  0  0  0
   11.4353   -2.9204   17.8044 C   0  0  0  0  0  0  0  0  0  0  0  0
   11.1529   -4.3028   22.1277 C   0  0  0  0  0  0  0  0  0  0  0  0
   11.1290   -4.8502   19.8052 C   0  0  0  0  0  0  0  0  0  0  0  0
   12.4329   -4.2159   24.4224 C   0  0  0  0  0  0  0  0  0  0  0  0
    3.4740   -9.0387   16.5022 C   0  0  0  0  0  0  0  0  0  0  0  0
    6.8384   -7.9290   17.5282 N   0  0  0  0  0  0  0  0  0  0  0  0
    9.4126   -5.9853   18.4899 C   0  0  0  0  0  0  0  0  0  0  0  0
    4.2064  -10.3242   18.3302 C   0  0  0  0  0  0  0  0  0  0  0  0
    9.6599   -4.1551   16.4796 N   0  0  0  0  0  0  0  0  0  0  0  0
    7.0644   -6.4612   15.7375 N   0  0  0  0  0  0  0  0  0  0  0  0
    5.3549   -9.6322   18.3190 C   0  0  0  0  0  0  0  0  0  0  0  0
   10.3704   -4.9638   18.6510 C   0  0  0  0  0  0  0  0  0  0  0  0
    5.5935   -8.6419   17.4234 C   0  0  0  0  0  0  0  0  0  0  0  0
   13.0726   -4.6648   23.3394 O   0  0  0  0  0  0  0  0  0  0  0  0
    8.5955   -6.0705   17.3996 C   0  0  0  0  0  0  0  0  0  0  0  0
    4.6223   -8.3832   16.5030 C   0  0  0  0  0  0  0  0  0  0  0  0
   12.4690   -5.2624   19.9024 C   0  0  0  0  0  0  0  0  0  0  0  0
    3.2548   -9.9919   17.4189 C   0  0  0  0  0  0  0  0  0  0  0  0
   12.4767   -4.7393   22.1790 C   0  0  0  0  0  0  0  0  0  0  0  0
    7.8593   -5.3772   15.3569 N   0  0  0  0  0  0  0  0  0  0  0  0
    7.4412   -6.9038   16.9283 C   0  0  0  0  0  0  0  0  0  0  0  0
  1 21  4  0
  1 23  4  0
  2  5  1  0
  2 13  4  0
  2 16  4  0
  3  6  4  0
  3  7  4  0
  4 13  4  0
  4 19  4  0
  4 24  4  0
  6 23  4  0
  7 16  1  0
  7 21  4  0
  8 18  1  0
  9 20  4  0
  9 22  4  0
 10 17  1  0
 10 25  1  0
 11 16  4  0
 11 19  4  0
 12 15  4  0
 12 22  4  0
 14 24  4  0
 14 25  4  0
 15 17  4  0
 17 20  4  0
 18 23  1  0
 19 25  4  0
M  END
$$$$

 Created by Python create_sdf_string function

 25 28  0  0  0  0  0  0  0  0999 V2000
   13.1533   -5.2399   21.0682 C   0  0  0  0  0  0  0  0  0  0  0  0
   10.4729   -4.0295   17.6135 C   0  0  0  0  0  0  0  0  0  0  0  0
   10.4789   -4.3641   20.9564 C   0  0  0  0  0  0  0  0  0  0  0  0
    8.7421   -5.1412   16.3650 C   0  0  0  0  0  0  0  0  0  0  0  0
   11.4353   -2.9204   17.8044 C   0  0  0  0  0  0  0  0  0  0  0  0
   11.1529   -4.3028   22.1277 C   0  0  0  0  0  0  0  0  0  0  0  0
   11.1290   -4.8502   19.8052 C   0  0  0  0  0  0  0  0  0  0  0  0
   12.4329   -4.2159   24.4224 C   0  0  0  0  0  0  0  0  0  0  0  0
    3.4740   -9.0387   16.5022 C   0  0  0  0  0  0  0  0  0  0  0  0
    6.8384   -7.9290   17.5282 N   0  0  0  0  0  0  0  0  0  0  0  0
    9.4126   -5.9853   18.4899 C   0  0  0  0  0  0  0  0  0  0  0  0
    4.2064  -10.3242   18.3302 C   0  0  0  0  0  0  0  0  0  0  0  0
    9.6599   -4.1551   16.4796 N   0  0  0  0  0  0  0  0  0  0  0  0
    7.0644   -6.4612   15.7375 N   0  0  0  0  0  0  0  0  0  0  0  0
    5.3549   -9.6322   18.3190 C   0  0  0  0  0  0  0  0  0  0  0  0
   10.3704   -4.9638   18.6510 C   0  0  0  0  0  0  0  0  0  0  0  0
    5.5935   -8.6419   17.4234 C   0  0  0  0  0  0  0  0  0  0  0  0
   13.0726   -4.6648   23.3394 O   0  0  0  0  0  0  0  0  0  0  0  0
    8.5955   -6.0705   17.3996 C   0  0  0  0  0  0  0  0  0  0  0  0
    4.6223   -8.3832   16.5030 C   0  0  0  0  0  0  0  0  0  0  0  0
   12.4690   -5.2624   19.9024 C   0  0  0  0  0  0  0  0  0  0  0  0
    3.2548   -9.9919   17.4189 C   0  0  0  0  0  0  0  0  0  0  0  0
   12.4767   -4.7393   22.1790 C   0  0  0  0  0  0  0  0  0  0  0  0
    7.8593   -5.3772   15.3569 N   0  0  0  0  0  0  0  0  0  0  0  0
    7.4412   -6.9038   16.9283 C   0  0  0  0  0  0  0  0  0  0  0  0
  1 21  4  0
  1 23  4  0
  2  5  1  0
  2 13  4  0
  2 16  4  0
  3  6  4  0
  3  7  4  0
  4 13  4  0
  4 19  4  0
  4 24  4  0
  6 23  4  0
  7 16  1  0
  7 21  4  0
  8 18  1  0
  9 20  4  0
  9 22  4  0
 10 17  1  0
 10 25  1  0
 11 16  4  0
 11 19  4  0
 12 15  4  0
 12 22  4  0
 14 24  4  0
 14 25  4  0
 15 17  4  0
 17 20  4  0
 18 23  1  0
 19 25  4  0
M  END
$$$$

 Created by Python create_sdf_string function

 25 28  0  0  0  0  0  0  0  0999 V2000
   13.1533   -5.2399   21.0682 C   0  0  0  0  0  0  0  0  0  0  0  0
   10.4729   -4.0295   17.6135 C   0  0  0  0  0  0  0  0  0  0  0  0
   10.4789   -4.3641   20.9564 C   0  0  0  0  0  0  0  0  0  0  0  0
    8.7421   -5.1412   16.3650 C   0  0  0  0  0  0  0  0  0  0  0  0
   11.4353   -2.9204   17.8044 C   0  0  0  0  0  0  0  0  0  0  0  0
   11.1529   -4.3028   22.1277 C   0  0  0  0  0  0  0  0  0  0  0  0
   11.1290   -4.8502   19.8052 C   0  0  0  0  0  0  0  0  0  0  0  0
   12.4329   -4.2159   24.4224 C   0  0  0  0  0  0  0  0  0  0  0  0
    3.4740   -9.0387   16.5022 C   0  0  0  0  0  0  0  0  0  0  0  0
    6.8384   -7.9290   17.5282 N   0  0  0  0  0  0  0  0  0  0  0  0
    9.4126   -5.9853   18.4899 C   0  0  0  0  0  0  0  0  0  0  0  0
    4.2064  -10.3242   18.3302 C   0  0  0  0  0  0  0  0  0  0  0  0
    9.6599   -4.1551   16.4796 N   0  0  0  0  0  0  0  0  0  0  0  0
    7.0644   -6.4612   15.7375 N   0  0  0  0  0  0  0  0  0  0  0  0
    5.3549   -9.6322   18.3190 C   0  0  0  0  0  0  0  0  0  0  0  0
   10.3704   -4.9638   18.6510 C   0  0  0  0  0  0  0  0  0  0  0  0
    5.5935   -8.6419   17.4234 C   0  0  0  0  0  0  0  0  0  0  0  0
   13.0726   -4.6648   23.3394 O   0  0  0  0  0  0  0  0  0  0  0  0
    8.5955   -6.0705   17.3996 C   0  0  0  0  0  0  0  0  0  0  0  0
    4.6223   -8.3832   16.5030 C   0  0  0  0  0  0  0  0  0  0  0  0
   12.4690   -5.2624   19.9024 C   0  0  0  0  0  0  0  0  0  0  0  0
    3.2548   -9.9919   17.4189 C   0  0  0  0  0  0  0  0  0  0  0  0
   12.4767   -4.7393   22.1790 C   0  0  0  0  0  0  0  0  0  0  0  0
    7.8593   -5.3772   15.3569 N   0  0  0  0  0  0  0  0  0  0  0  0
    7.4412   -6.9038   16.9283 C   0  0  0  0  0  0  0  0  0  0  0  0
  1 21  4  0
  1 23  4  0
  2  5  1  0
  2 13  4  0
  2 16  4  0
  3  6  4  0
  3  7  4  0
  4 13  4  0
  4 19  4  0
  4 24  4  0
  6 23  4  0
  7 16  1  0
  7 21  4  0
  8 18  1  0
  9 20  4  0
  9 22  4  0
 10 17  1  0
 10 25  1  0
 11 16  4  0
 11 19  4  0
 12 15  4  0
 12 22  4  0
 14 24  4  0
 14 25  4  0
 15 17  4  0
 17 20  4  0
 18 23  1  0
 19 25  4  0
M  END
$$$$

 Created by Python create_sdf_string function

 25 28  0  0  0  0  0  0  0  0999 V2000
   13.1533   -5.2399   21.0682 C   0  0  0  0  0  0  0  0  0  0  0  0
   10.4729   -4.0295   17.6135 C   0  0  0  0  0  0  0  0  0  0  0  0
   10.4789   -4.3641   20.9564 C   0  0  0  0  0  0  0  0  0  0  0  0
    8.7421   -5.1412   16.3650 C   0  0  0  0  0  0  0  0  0  0  0  0
   11.4353   -2.9204   17.8044 C   0  0  0  0  0  0  0  0  0  0  0  0
   11.1529   -4.3028   22.1277 C   0  0  0  0  0  0  0  0  0  0  0  0
   11.1290   -4.8502   19.8052 C   0  0  0  0  0  0  0  0  0  0  0  0
   12.4329   -4.2159   24.4224 C   0  0  0  0  0  0  0  0  0  0  0  0
    3.4740   -9.0387   16.5022 C   0  0  0  0  0  0  0  0  0  0  0  0
    6.8384   -7.9290   17.5282 N   0  0  0  0  0  0  0  0  0  0  0  0
    9.4126   -5.9853   18.4899 C   0  0  0  0  0  0  0  0  0  0  0  0
    4.2064  -10.3242   18.3302 C   0  0  0  0  0  0  0  0  0  0  0  0
    9.6599   -4.1551   16.4796 N   0  0  0  0  0  0  0  0  0  0  0  0
    7.0644   -6.4612   15.7375 N   0  0  0  0  0  0  0  0  0  0  0  0
    5.3549   -9.6322   18.3190 C   0  0  0  0  0  0  0  0  0  0  0  0
   10.3704   -4.9638   18.6510 C   0  0  0  0  0  0  0  0  0  0  0  0
    5.5935   -8.6419   17.4234 C   0  0  0  0  0  0  0  0  0  0  0  0
   13.0726   -4.6648   23.3394 O   0  0  0  0  0  0  0  0  0  0  0  0
    8.5955   -6.0705   17.3996 C   0  0  0  0  0  0  0  0  0  0  0  0
    4.6223   -8.3832   16.5030 C   0  0  0  0  0  0  0  0  0  0  0  0
   12.4690   -5.2624   19.9024 C   0  0  0  0  0  0  0  0  0  0  0  0
    3.2548   -9.9919   17.4189 C   0  0  0  0  0  0  0  0  0  0  0  0
   12.4767   -4.7393   22.1790 C   0  0  0  0  0  0  0  0  0  0  0  0
    7.8593   -5.3772   15.3569 N   0  0  0  0  0  0  0  0  0  0  0  0
    7.4412   -6.9038   16.9283 C   0  0  0  0  0  0  0  0  0  0  0  0
  1 21  4  0
  1 23  4  0
  2  5  1  0
  2 13  4  0
  2 16  4  0
  3  6  4  0
  3  7  4  0
  4 13  4  0
  4 19  4  0
  4 24  4  0
  6 23  4  0
  7 16  1  0
  7 21  4  0
  8 18  1  0
  9 20  4  0
  9 22  4  0
 10 17  1  0
 10 25  1  0
 11 16  4  0
 11 19  4  0
 12 15  4  0
 12 22  4  0
 14 24  4  0
 14 25  4  0
 15 17  4  0
 17 20  4  0
 18 23  1  0
 19 25  4  0
M  END
$$$$

 Created by Python create_sdf_string function

 25 28  0  0  0  0  0  0  0  0999 V2000
   13.1533   -5.2399   21.0682 C   0  0  0  0  0  0  0  0  0  0  0  0
   10.4729   -4.0295   17.6135 C   0  0  0  0  0  0  0  0  0  0  0  0
   10.4789   -4.3641   20.9564 C   0  0  0  0  0  0  0  0  0  0  0  0
    8.7421   -5.1412   16.3650 C   0  0  0  0  0  0  0  0  0  0  0  0
   11.4353   -2.9204   17.8044 C   0  0  0  0  0  0  0  0  0  0  0  0
   11.1529   -4.3028   22.1277 C   0  0  0  0  0  0  0  0  0  0  0  0
   11.1290   -4.8502   19.8052 C   0  0  0  0  0  0  0  0  0  0  0  0
   12.4329   -4.2159   24.4224 C   0  0  0  0  0  0  0  0  0  0  0  0
    3.4740   -9.0387   16.5022 C   0  0  0  0  0  0  0  0  0  0  0  0
    6.8384   -7.9290   17.5282 N   0  0  0  0  0  0  0  0  0  0  0  0
    9.4126   -5.9853   18.4899 C   0  0  0  0  0  0  0  0  0  0  0  0
    4.2064  -10.3242   18.3302 C   0  0  0  0  0  0  0  0  0  0  0  0
    9.6599   -4.1551   16.4796 N   0  0  0  0  0  0  0  0  0  0  0  0
    7.0644   -6.4612   15.7375 N   0  0  0  0  0  0  0  0  0  0  0  0
    5.3549   -9.6322   18.3190 C   0  0  0  0  0  0  0  0  0  0  0  0
   10.3704   -4.9638   18.6510 C   0  0  0  0  0  0  0  0  0  0  0  0
    5.5935   -8.6419   17.4234 C   0  0  0  0  0  0  0  0  0  0  0  0
   13.0726   -4.6648   23.3394 O   0  0  0  0  0  0  0  0  0  0  0  0
    8.5955   -6.0705   17.3996 C   0  0  0  0  0  0  0  0  0  0  0  0
    4.6223   -8.3832   16.5030 C   0  0  0  0  0  0  0  0  0  0  0  0
   12.4690   -5.2624   19.9024 C   0  0  0  0  0  0  0  0  0  0  0  0
    3.2548   -9.9919   17.4189 C   0  0  0  0  0  0  0  0  0  0  0  0
   12.4767   -4.7393   22.1790 C   0  0  0  0  0  0  0  0  0  0  0  0
    7.8593   -5.3772   15.3569 N   0  0  0  0  0  0  0  0  0  0  0  0
    7.4412   -6.9038   16.9283 C   0  0  0  0  0  0  0  0  0  0  0  0
  1 21  4  0
  1 23  4  0
  2  5  1  0
  2 13  4  0
  2 16  4  0
  3  6  4  0
  3  7  4  0
  4 13  4  0
  4 19  4  0
  4 24  4  0
  6 23  4  0
  7 16  1  0
  7 21  4  0
  8 18  1  0
  9 20  4  0
  9 22  4  0
 10 17  1  0
 10 25  1  0
 11 16  4  0
 11 19  4  0
 12 15  4  0
 12 22  4  0
 14 24  4  0
 14 25  4  0
 15 17  4  0
 17 20  4  0
 18 23  1  0
 19 25  4  0
M  END
$$$$

 Created by Python create_sdf_string function

 25 28  0  0  0  0  0  0  0  0999 V2000
   13.1533   -5.2399   21.0682 C   0  0  0  0  0  0  0  0  0  0  0  0
   10.4729   -4.0295   17.6135 C   0  0  0  0  0  0  0  0  0  0  0  0
   10.4789   -4.3641   20.9564 C   0  0  0  0  0  0  0  0  0  0  0  0
    8.7421   -5.1412   16.3650 C   0  0  0  0  0  0  0  0  0  0  0  0
   11.4353   -2.9204   17.8044 C   0  0  0  0  0  0  0  0  0  0  0  0
   11.1529   -4.3028   22.1277 C   0  0  0  0  0  0  0  0  0  0  0  0
   11.1290   -4.8502   19.8052 C   0  0  0  0  0  0  0  0  0  0  0  0
   12.4329   -4.2159   24.4224 C   0  0  0  0  0  0  0  0  0  0  0  0
    3.4740   -9.0387   16.5022 C   0  0  0  0  0  0  0  0  0  0  0  0
    6.8384   -7.9290   17.5282 N   0  0  0  0  0  0  0  0  0  0  0  0
    9.4126   -5.9853   18.4899 C   0  0  0  0  0  0  0  0  0  0  0  0
    4.2064  -10.3242   18.3302 C   0  0  0  0  0  0  0  0  0  0  0  0
    9.6599   -4.1551   16.4796 N   0  0  0  0  0  0  0  0  0  0  0  0
    7.0644   -6.4612   15.7375 N   0  0  0  0  0  0  0  0  0  0  0  0
    5.3549   -9.6322   18.3190 C   0  0  0  0  0  0  0  0  0  0  0  0
   10.3704   -4.9638   18.6510 C   0  0  0  0  0  0  0  0  0  0  0  0
    5.5935   -8.6419   17.4234 C   0  0  0  0  0  0  0  0  0  0  0  0
   13.0726   -4.6648   23.3394 O   0  0  0  0  0  0  0  0  0  0  0  0
    8.5955   -6.0705   17.3996 C   0  0  0  0  0  0  0  0  0  0  0  0
    4.6223   -8.3832   16.5030 C   0  0  0  0  0  0  0  0  0  0  0  0
   12.4690   -5.2624   19.9024 C   0  0  0  0  0  0  0  0  0  0  0  0
    3.2548   -9.9919   17.4189 C   0  0  0  0  0  0  0  0  0  0  0  0
   12.4767   -4.7393   22.1790 C   0  0  0  0  0  0  0  0  0  0  0  0
    7.8593   -5.3772   15.3569 N   0  0  0  0  0  0  0  0  0  0  0  0
    7.4412   -6.9038   16.9283 C   0  0  0  0  0  0  0  0  0  0  0  0
  1 21  4  0
  1 23  4  0
  2  5  1  0
  2 13  4  0
  2 16  4  0
  3  6  4  0
  3  7  4  0
  4 13  4  0
  4 19  4  0
  4 24  4  0
  6 23  4  0
  7 16  1  0
  7 21  4  0
  8 18  1  0
  9 20  4  0
  9 22  4  0
 10 17  1  0
 10 25  1  0
 11 16  4  0
 11 19  4  0
 12 15  4  0
 12 22  4  0
 14 24  4  0
 14 25  4  0
 15 17  4  0
 17 20  4  0
 18 23  1  0
 19 25  4  0
M  END
$$$$

 Created by Python create_sdf_string function

 25 28  0  0  0  0  0  0  0  0999 V2000
   13.1533   -5.2399   21.0682 C   0  0  0  0  0  0  0  0  0  0  0  0
   10.4729   -4.0295   17.6135 C   0  0  0  0  0  0  0  0  0  0  0  0
   10.4789   -4.3641   20.9564 C   0  0  0  0  0  0  0  0  0  0  0  0
    8.7421   -5.1412   16.3650 C   0  0  0  0  0  0  0  0  0  0  0  0
   11.4353   -2.9204   17.8044 C   0  0  0  0  0  0  0  0  0  0  0  0
   11.1529   -4.3028   22.1277 C   0  0  0  0  0  0  0  0  0  0  0  0
   11.1290   -4.8502   19.8052 C   0  0  0  0  0  0  0  0  0  0  0  0
   12.4329   -4.2159   24.4224 C   0  0  0  0  0  0  0  0  0  0  0  0
    3.4740   -9.0387   16.5022 C   0  0  0  0  0  0  0  0  0  0  0  0
    6.8384   -7.9290   17.5282 N   0  0  0  0  0  0  0  0  0  0  0  0
    9.4126   -5.9853   18.4899 C   0  0  0  0  0  0  0  0  0  0  0  0
    4.2064  -10.3242   18.3302 C   0  0  0  0  0  0  0  0  0  0  0  0
    9.6599   -4.1551   16.4796 N   0  0  0  0  0  0  0  0  0  0  0  0
    7.0644   -6.4612   15.7375 N   0  0  0  0  0  0  0  0  0  0  0  0
    5.3549   -9.6322   18.3190 C   0  0  0  0  0  0  0  0  0  0  0  0
   10.3704   -4.9638   18.6510 C   0  0  0  0  0  0  0  0  0  0  0  0
    5.5935   -8.6419   17.4234 C   0  0  0  0  0  0  0  0  0  0  0  0
   13.0726   -4.6648   23.3394 O   0  0  0  0  0  0  0  0  0  0  0  0
    8.5955   -6.0705   17.3996 C   0  0  0  0  0  0  0  0  0  0  0  0
    4.6223   -8.3832   16.5030 C   0  0  0  0  0  0  0  0  0  0  0  0
   12.4690   -5.2624   19.9024 C   0  0  0  0  0  0  0  0  0  0  0  0
    3.2548   -9.9919   17.4189 C   0  0  0  0  0  0  0  0  0  0  0  0
   12.4767   -4.7393   22.1790 C   0  0  0  0  0  0  0  0  0  0  0  0
    7.8593   -5.3772   15.3569 N   0  0  0  0  0  0  0  0  0  0  0  0
    7.4412   -6.9038   16.9283 C   0  0  0  0  0  0  0  0  0  0  0  0
  1 21  4  0
  1 23  4  0
  2  5  1  0
  2 13  4  0
  2 16  4  0
  3  6  4  0
  3  7  4  0
  4 13  4  0
  4 19  4  0
  4 24  4  0
  6 23  4  0
  7 16  1  0
  7 21  4  0
  8 18  1  0
  9 20  4  0
  9 22  4  0
 10 17  1  0
 10 25  1  0
 11 16  4  0
 11 19  4  0
 12 15  4  0
 12 22  4  0
 14 24  4  0
 14 25  4  0
 15 17  4  0
 17 20  4  0
 18 23  1  0
 19 25  4  0
M  END
$$$$

 Created by Python create_sdf_string function

 25 28  0  0  0  0  0  0  0  0999 V2000
   13.1533   -5.2399   21.0682 C   0  0  0  0  0  0  0  0  0  0  0  0
   10.4729   -4.0295   17.6135 C   0  0  0  0  0  0  0  0  0  0  0  0
   10.4789   -4.3641   20.9564 C   0  0  0  0  0  0  0  0  0  0  0  0
    8.7421   -5.1412   16.3650 C   0  0  0  0  0  0  0  0  0  0  0  0
   11.4353   -2.9204   17.8044 C   0  0  0  0  0  0  0  0  0  0  0  0
   11.1529   -4.3028   22.1277 C   0  0  0  0  0  0  0  0  0  0  0  0
   11.1290   -4.8502   19.8052 C   0  0  0  0  0  0  0  0  0  0  0  0
   12.4329   -4.2159   24.4224 C   0  0  0  0  0  0  0  0  0  0  0  0
    3.4740   -9.0387   16.5022 C   0  0  0  0  0  0  0  0  0  0  0  0
    6.8384   -7.9290   17.5282 N   0  0  0  0  0  0  0  0  0  0  0  0
    9.4126   -5.9853   18.4899 C   0  0  0  0  0  0  0  0  0  0  0  0
    4.2064  -10.3242   18.3302 C   0  0  0  0  0  0  0  0  0  0  0  0
    9.6599   -4.1551   16.4796 N   0  0  0  0  0  0  0  0  0  0  0  0
    7.0644   -6.4612   15.7375 N   0  0  0  0  0  0  0  0  0  0  0  0
    5.3549   -9.6322   18.3190 C   0  0  0  0  0  0  0  0  0  0  0  0
   10.3704   -4.9638   18.6510 C   0  0  0  0  0  0  0  0  0  0  0  0
    5.5935   -8.6419   17.4234 C   0  0  0  0  0  0  0  0  0  0  0  0
   13.0726   -4.6648   23.3394 O   0  0  0  0  0  0  0  0  0  0  0  0
    8.5955   -6.0705   17.3996 C   0  0  0  0  0  0  0  0  0  0  0  0
    4.6223   -8.3832   16.5030 C   0  0  0  0  0  0  0  0  0  0  0  0
   12.4690   -5.2624   19.9024 C   0  0  0  0  0  0  0  0  0  0  0  0
    3.2548   -9.9919   17.4189 C   0  0  0  0  0  0  0  0  0  0  0  0
   12.4767   -4.7393   22.1790 C   0  0  0  0  0  0  0  0  0  0  0  0
    7.8593   -5.3772   15.3569 N   0  0  0  0  0  0  0  0  0  0  0  0
    7.4412   -6.9038   16.9283 C   0  0  0  0  0  0  0  0  0  0  0  0
  1 21  4  0
  1 23  4  0
  2  5  1  0
  2 13  4  0
  2 16  4  0
  3  6  4  0
  3  7  4  0
  4 13  4  0
  4 19  4  0
  4 24  4  0
  6 23  4  0
  7 16  1  0
  7 21  4  0
  8 18  1  0
  9 20  4  0
  9 22  4  0
 10 17  1  0
 10 25  1  0
 11 16  4  0
 11 19  4  0
 12 15  4  0
 12 22  4  0
 14 24  4  0
 14 25  4  0
 15 17  4  0
 17 20  4  0
 18 23  1  0
 19 25  4  0
M  END
$$$$

 Created by Python create_sdf_string function

 25 28  0  0  0  0  0  0  0  0999 V2000
   13.1533   -5.2399   21.0682 C   0  0  0  0  0  0  0  0  0  0  0  0
   10.4729   -4.0295   17.6135 C   0  0  0  0  0  0  0  0  0  0  0  0
   10.4789   -4.3641   20.9564 C   0  0  0  0  0  0  0  0  0  0  0  0
    8.7421   -5.1412   16.3650 C   0  0  0  0  0  0  0  0  0  0  0  0
   11.4353   -2.9204   17.8044 C   0  0  0  0  0  0  0  0  0  0  0  0
   11.1529   -4.3028   22.1277 C   0  0  0  0  0  0  0  0  0  0  0  0
   11.1290   -4.8502   19.8052 C   0  0  0  0  0  0  0  0  0  0  0  0
   12.4329   -4.2159   24.4224 C   0  0  0  0  0  0  0  0  0  0  0  0
    3.4740   -9.0387   16.5022 C   0  0  0  0  0  0  0  0  0  0  0  0
    6.8384   -7.9290   17.5282 N   0  0  0  0  0  0  0  0  0  0  0  0
    9.4126   -5.9853   18.4899 C   0  0  0  0  0  0  0  0  0  0  0  0
    4.2064  -10.3242   18.3302 C   0  0  0  0  0  0  0  0  0  0  0  0
    9.6599   -4.1551   16.4796 N   0  0  0  0  0  0  0  0  0  0  0  0
    7.0644   -6.4612   15.7375 N   0  0  0  0  0  0  0  0  0  0  0  0
    5.3549   -9.6322   18.3190 C   0  0  0  0  0  0  0  0  0  0  0  0
   10.3704   -4.9638   18.6510 C   0  0  0  0  0  0  0  0  0  0  0  0
    5.5935   -8.6419   17.4234 C   0  0  0  0  0  0  0  0  0  0  0  0
   13.0726   -4.6648   23.3394 O   0  0  0  0  0  0  0  0  0  0  0  0
    8.5955   -6.0705   17.3996 C   0  0  0  0  0  0  0  0  0  0  0  0
    4.6223   -8.3832   16.5030 C   0  0  0  0  0  0  0  0  0  0  0  0
   12.4690   -5.2624   19.9024 C   0  0  0  0  0  0  0  0  0  0  0  0
    3.2548   -9.9919   17.4189 C   0  0  0  0  0  0  0  0  0  0  0  0
   12.4767   -4.7393   22.1790 C   0  0  0  0  0  0  0  0  0  0  0  0
    7.8593   -5.3772   15.3569 N   0  0  0  0  0  0  0  0  0  0  0  0
    7.4412   -6.9038   16.9283 C   0  0  0  0  0  0  0  0  0  0  0  0
  1 21  4  0
  1 23  4  0
  2  5  1  0
  2 13  4  0
  2 16  4  0
  3  6  4  0
  3  7  4  0
  4 13  4  0
  4 19  4  0
  4 24  4  0
  6 23  4  0
  7 16  1  0
  7 21  4  0
  8 18  1  0
  9 20  4  0
  9 22  4  0
 10 17  1  0
 10 25  1  0
 11 16  4  0
 11 19  4  0
 12 15  4  0
 12 22  4  0
 14 24  4  0
 14 25  4  0
 15 17  4  0
 17 20  4  0
 18 23  1  0
 19 25  4  0
M  END
$$$$

 Created by Python create_sdf_string function

 25 28  0  0  0  0  0  0  0  0999 V2000
   13.1533   -5.2399   21.0682 C   0  0  0  0  0  0  0  0  0  0  0  0
   10.4729   -4.0295   17.6135 C   0  0  0  0  0  0  0  0  0  0  0  0
   10.4789   -4.3641   20.9564 C   0  0  0  0  0  0  0  0  0  0  0  0
    8.7421   -5.1412   16.3650 C   0  0  0  0  0  0  0  0  0  0  0  0
   11.4353   -2.9204   17.8044 C   0  0  0  0  0  0  0  0  0  0  0  0
   11.1529   -4.3028   22.1277 C   0  0  0  0  0  0  0  0  0  0  0  0
   11.1290   -4.8502   19.8052 C   0  0  0  0  0  0  0  0  0  0  0  0
   12.4329   -4.2159   24.4224 C   0  0  0  0  0  0  0  0  0  0  0  0
    3.4740   -9.0387   16.5022 C   0  0  0  0  0  0  0  0  0  0  0  0
    6.8384   -7.9290   17.5282 N   0  0  0  0  0  0  0  0  0  0  0  0
    9.4126   -5.9853   18.4899 C   0  0  0  0  0  0  0  0  0  0  0  0
    4.2064  -10.3242   18.3302 C   0  0  0  0  0  0  0  0  0  0  0  0
    9.6599   -4.1551   16.4796 N   0  0  0  0  0  0  0  0  0  0  0  0
    7.0644   -6.4612   15.7375 N   0  0  0  0  0  0  0  0  0  0  0  0
    5.3549   -9.6322   18.3190 C   0  0  0  0  0  0  0  0  0  0  0  0
   10.3704   -4.9638   18.6510 C   0  0  0  0  0  0  0  0  0  0  0  0
    5.5935   -8.6419   17.4234 C   0  0  0  0  0  0  0  0  0  0  0  0
   13.0726   -4.6648   23.3394 O   0  0  0  0  0  0  0  0  0  0  0  0
    8.5955   -6.0705   17.3996 C   0  0  0  0  0  0  0  0  0  0  0  0
    4.6223   -8.3832   16.5030 C   0  0  0  0  0  0  0  0  0  0  0  0
   12.4690   -5.2624   19.9024 C   0  0  0  0  0  0  0  0  0  0  0  0
    3.2548   -9.9919   17.4189 C   0  0  0  0  0  0  0  0  0  0  0  0
   12.4767   -4.7393   22.1790 C   0  0  0  0  0  0  0  0  0  0  0  0
    7.8593   -5.3772   15.3569 N   0  0  0  0  0  0  0  0  0  0  0  0
    7.4412   -6.9038   16.9283 C   0  0  0  0  0  0  0  0  0  0  0  0
  1 21  4  0
  1 23  4  0
  2  5  1  0
  2 13  4  0
  2 16  4  0
  3  6  4  0
  3  7  4  0
  4 13  4  0
  4 19  4  0
  4 24  4  0
  6 23  4  0
  7 16  1  0
  7 21  4  0
  8 18  1  0
  9 20  4  0
  9 22  4  0
 10 17  1  0
 10 25  1  0
 11 16  4  0
 11 19  4  0
 12 15  4  0
 12 22  4  0
 14 24  4  0
 14 25  4  0
 15 17  4  0
 17 20  4  0
 18 23  1  0
 19 25  4  0
M  END
$$$$

 Created by Python create_sdf_string function

 25 28  0  0  0  0  0  0  0  0999 V2000
   13.1533   -5.2399   21.0682 C   0  0  0  0  0  0  0  0  0  0  0  0
   10.4729   -4.0295   17.6135 C   0  0  0  0  0  0  0  0  0  0  0  0
   10.4789   -4.3641   20.9564 C   0  0  0  0  0  0  0  0  0  0  0  0
    8.7421   -5.1412   16.3650 C   0  0  0  0  0  0  0  0  0  0  0  0
   11.4353   -2.9204   17.8044 C   0  0  0  0  0  0  0  0  0  0  0  0
   11.1529   -4.3028   22.1277 C   0  0  0  0  0  0  0  0  0  0  0  0
   11.1290   -4.8502   19.8052 C   0  0  0  0  0  0  0  0  0  0  0  0
   12.4329   -4.2159   24.4224 C   0  0  0  0  0  0  0  0  0  0  0  0
    3.4740   -9.0387   16.5022 C   0  0  0  0  0  0  0  0  0  0  0  0
    6.8384   -7.9290   17.5282 N   0  0  0  0  0  0  0  0  0  0  0  0
    9.4126   -5.9853   18.4899 C   0  0  0  0  0  0  0  0  0  0  0  0
    4.2064  -10.3242   18.3302 C   0  0  0  0  0  0  0  0  0  0  0  0
    9.6599   -4.1551   16.4796 N   0  0  0  0  0  0  0  0  0  0  0  0
    7.0644   -6.4612   15.7375 N   0  0  0  0  0  0  0  0  0  0  0  0
    5.3549   -9.6322   18.3190 C   0  0  0  0  0  0  0  0  0  0  0  0
   10.3704   -4.9638   18.6510 C   0  0  0  0  0  0  0  0  0  0  0  0
    5.5935   -8.6419   17.4234 C   0  0  0  0  0  0  0  0  0  0  0  0
   13.0726   -4.6648   23.3394 O   0  0  0  0  0  0  0  0  0  0  0  0
    8.5955   -6.0705   17.3996 C   0  0  0  0  0  0  0  0  0  0  0  0
    4.6223   -8.3832   16.5030 C   0  0  0  0  0  0  0  0  0  0  0  0
   12.4690   -5.2624   19.9024 C   0  0  0  0  0  0  0  0  0  0  0  0
    3.2548   -9.9919   17.4189 C   0  0  0  0  0  0  0  0  0  0  0  0
   12.4767   -4.7393   22.1790 C   0  0  0  0  0  0  0  0  0  0  0  0
    7.8593   -5.3772   15.3569 N   0  0  0  0  0  0  0  0  0  0  0  0
    7.4412   -6.9038   16.9283 C   0  0  0  0  0  0  0  0  0  0  0  0
  1 21  4  0
  1 23  4  0
  2  5  1  0
  2 13  4  0
  2 16  4  0
  3  6  4  0
  3  7  4  0
  4 13  4  0
  4 19  4  0
  4 24  4  0
  6 23  4  0
  7 16  1  0
  7 21  4  0
  8 18  1  0
  9 20  4  0
  9 22  4  0
 10 17  1  0
 10 25  1  0
 11 16  4  0
 11 19  4  0
 12 15  4  0
 12 22  4  0
 14 24  4  0
 14 25  4  0
 15 17  4  0
 17 20  4  0
 18 23  1  0
 19 25  4  0
M  END
$$$$

 Created by Python create_sdf_string function

 25 28  0  0  0  0  0  0  0  0999 V2000
   13.1533   -5.2399   21.0682 C   0  0  0  0  0  0  0  0  0  0  0  0
   10.4729   -4.0295   17.6135 C   0  0  0  0  0  0  0  0  0  0  0  0
   10.4789   -4.3641   20.9564 C   0  0  0  0  0  0  0  0  0  0  0  0
    8.7421   -5.1412   16.3650 C   0  0  0  0  0  0  0  0  0  0  0  0
   11.4353   -2.9204   17.8044 C   0  0  0  0  0  0  0  0  0  0  0  0
   11.1529   -4.3028   22.1277 C   0  0  0  0  0  0  0  0  0  0  0  0
   11.1290   -4.8502   19.8052 C   0  0  0  0  0  0  0  0  0  0  0  0
   12.4329   -4.2159   24.4224 C   0  0  0  0  0  0  0  0  0  0  0  0
    3.4740   -9.0387   16.5022 C   0  0  0  0  0  0  0  0  0  0  0  0
    6.8384   -7.9290   17.5282 N   0  0  0  0  0  0  0  0  0  0  0  0
    9.4126   -5.9853   18.4899 C   0  0  0  0  0  0  0  0  0  0  0  0
    4.2064  -10.3242   18.3302 C   0  0  0  0  0  0  0  0  0  0  0  0
    9.6599   -4.1551   16.4796 N   0  0  0  0  0  0  0  0  0  0  0  0
    7.0644   -6.4612   15.7375 N   0  0  0  0  0  0  0  0  0  0  0  0
    5.3549   -9.6322   18.3190 C   0  0  0  0  0  0  0  0  0  0  0  0
   10.3704   -4.9638   18.6510 C   0  0  0  0  0  0  0  0  0  0  0  0
    5.5935   -8.6419   17.4234 C   0  0  0  0  0  0  0  0  0  0  0  0
   13.0726   -4.6648   23.3394 O   0  0  0  0  0  0  0  0  0  0  0  0
    8.5955   -6.0705   17.3996 C   0  0  0  0  0  0  0  0  0  0  0  0
    4.6223   -8.3832   16.5030 C   0  0  0  0  0  0  0  0  0  0  0  0
   12.4690   -5.2624   19.9024 C   0  0  0  0  0  0  0  0  0  0  0  0
    3.2548   -9.9919   17.4189 C   0  0  0  0  0  0  0  0  0  0  0  0
   12.4767   -4.7393   22.1790 C   0  0  0  0  0  0  0  0  0  0  0  0
    7.8593   -5.3772   15.3569 N   0  0  0  0  0  0  0  0  0  0  0  0
    7.4412   -6.9038   16.9283 C   0  0  0  0  0  0  0  0  0  0  0  0
  1 21  4  0
  1 23  4  0
  2  5  1  0
  2 13  4  0
  2 16  4  0
  3  6  4  0
  3  7  4  0
  4 13  4  0
  4 19  4  0
  4 24  4  0
  6 23  4  0
  7 16  1  0
  7 21  4  0
  8 18  1  0
  9 20  4  0
  9 22  4  0
 10 17  1  0
 10 25  1  0
 11 16  4  0
 11 19  4  0
 12 15  4  0
 12 22  4  0
 14 24  4  0
 14 25  4  0
 15 17  4  0
 17 20  4  0
 18 23  1  0
 19 25  4  0
M  END
$$$$

 Created by Python create_sdf_string function

 25 28  0  0  0  0  0  0  0  0999 V2000
   13.1533   -5.2399   21.0682 C   0  0  0  0  0  0  0  0  0  0  0  0
   10.4729   -4.0295   17.6135 C   0  0  0  0  0  0  0  0  0  0  0  0
   10.4789   -4.3641   20.9564 C   0  0  0  0  0  0  0  0  0  0  0  0
    8.7421   -5.1412   16.3650 C   0  0  0  0  0  0  0  0  0  0  0  0
   11.4353   -2.9204   17.8044 C   0  0  0  0  0  0  0  0  0  0  0  0
   11.1529   -4.3028   22.1277 C   0  0  0  0  0  0  0  0  0  0  0  0
   11.1290   -4.8502   19.8052 C   0  0  0  0  0  0  0  0  0  0  0  0
   12.4329   -4.2159   24.4224 C   0  0  0  0  0  0  0  0  0  0  0  0
    3.4740   -9.0387   16.5022 C   0  0  0  0  0  0  0  0  0  0  0  0
    6.8384   -7.9290   17.5282 N   0  0  0  0  0  0  0  0  0  0  0  0
    9.4126   -5.9853   18.4899 C   0  0  0  0  0  0  0  0  0  0  0  0
    4.2064  -10.3242   18.3302 C   0  0  0  0  0  0  0  0  0  0  0  0
    9.6599   -4.1551   16.4796 N   0  0  0  0  0  0  0  0  0  0  0  0
    7.0644   -6.4612   15.7375 N   0  0  0  0  0  0  0  0  0  0  0  0
    5.3549   -9.6322   18.3190 C   0  0  0  0  0  0  0  0  0  0  0  0
   10.3704   -4.9638   18.6510 C   0  0  0  0  0  0  0  0  0  0  0  0
    5.5935   -8.6419   17.4234 C   0  0  0  0  0  0  0  0  0  0  0  0
   13.0726   -4.6648   23.3394 O   0  0  0  0  0  0  0  0  0  0  0  0
    8.5955   -6.0705   17.3996 C   0  0  0  0  0  0  0  0  0  0  0  0
    4.6223   -8.3832   16.5030 C   0  0  0  0  0  0  0  0  0  0  0  0
   12.4690   -5.2624   19.9024 C   0  0  0  0  0  0  0  0  0  0  0  0
    3.2548   -9.9919   17.4189 C   0  0  0  0  0  0  0  0  0  0  0  0
   12.4767   -4.7393   22.1790 C   0  0  0  0  0  0  0  0  0  0  0  0
    7.8593   -5.3772   15.3569 N   0  0  0  0  0  0  0  0  0  0  0  0
    7.4412   -6.9038   16.9283 C   0  0  0  0  0  0  0  0  0  0  0  0
  1 21  4  0
  1 23  4  0
  2  5  1  0
  2 13  4  0
  2 16  4  0
  3  6  4  0
  3  7  4  0
  4 13  4  0
  4 19  4  0
  4 24  4  0
  6 23  4  0
  7 16  1  0
  7 21  4  0
  8 18  1  0
  9 20  4  0
  9 22  4  0
 10 17  1  0
 10 25  1  0
 11 16  4  0
 11 19  4  0
 12 15  4  0
 12 22  4  0
 14 24  4  0
 14 25  4  0
 15 17  4  0
 17 20  4  0
 18 23  1  0
 19 25  4  0
M  END
$$$$

 Created by Python create_sdf_string function

 25 28  0  0  0  0  0  0  0  0999 V2000
   13.1533   -5.2399   21.0682 C   0  0  0  0  0  0  0  0  0  0  0  0
   10.4729   -4.0295   17.6135 C   0  0  0  0  0  0  0  0  0  0  0  0
   10.4789   -4.3641   20.9564 C   0  0  0  0  0  0  0  0  0  0  0  0
    8.7421   -5.1412   16.3650 C   0  0  0  0  0  0  0  0  0  0  0  0
   11.4353   -2.9204   17.8044 C   0  0  0  0  0  0  0  0  0  0  0  0
   11.1529   -4.3028   22.1277 C   0  0  0  0  0  0  0  0  0  0  0  0
   11.1290   -4.8502   19.8052 C   0  0  0  0  0  0  0  0  0  0  0  0
   12.4329   -4.2159   24.4224 C   0  0  0  0  0  0  0  0  0  0  0  0
    3.4740   -9.0387   16.5022 C   0  0  0  0  0  0  0  0  0  0  0  0
    6.8384   -7.9290   17.5282 N   0  0  0  0  0  0  0  0  0  0  0  0
    9.4126   -5.9853   18.4899 C   0  0  0  0  0  0  0  0  0  0  0  0
    4.2064  -10.3242   18.3302 C   0  0  0  0  0  0  0  0  0  0  0  0
    9.6599   -4.1551   16.4796 N   0  0  0  0  0  0  0  0  0  0  0  0
    7.0644   -6.4612   15.7375 N   0  0  0  0  0  0  0  0  0  0  0  0
    5.3549   -9.6322   18.3190 C   0  0  0  0  0  0  0  0  0  0  0  0
   10.3704   -4.9638   18.6510 C   0  0  0  0  0  0  0  0  0  0  0  0
    5.5935   -8.6419   17.4234 C   0  0  0  0  0  0  0  0  0  0  0  0
   13.0726   -4.6648   23.3394 O   0  0  0  0  0  0  0  0  0  0  0  0
    8.5955   -6.0705   17.3996 C   0  0  0  0  0  0  0  0  0  0  0  0
    4.6223   -8.3832   16.5030 C   0  0  0  0  0  0  0  0  0  0  0  0
   12.4690   -5.2624   19.9024 C   0  0  0  0  0  0  0  0  0  0  0  0
    3.2548   -9.9919   17.4189 C   0  0  0  0  0  0  0  0  0  0  0  0
   12.4767   -4.7393   22.1790 C   0  0  0  0  0  0  0  0  0  0  0  0
    7.8593   -5.3772   15.3569 N   0  0  0  0  0  0  0  0  0  0  0  0
    7.4412   -6.9038   16.9283 C   0  0  0  0  0  0  0  0  0  0  0  0
  1 21  4  0
  1 23  4  0
  2  5  1  0
  2 13  4  0
  2 16  4  0
  3  6  4  0
  3  7  4  0
  4 13  4  0
  4 19  4  0
  4 24  4  0
  6 23  4  0
  7 16  1  0
  7 21  4  0
  8 18  1  0
  9 20  4  0
  9 22  4  0
 10 17  1  0
 10 25  1  0
 11 16  4  0
 11 19  4  0
 12 15  4  0
 12 22  4  0
 14 24  4  0
 14 25  4  0
 15 17  4  0
 17 20  4  0
 18 23  1  0
 19 25  4  0
M  END
$$$$

 Created by Python create_sdf_string function

 25 28  0  0  0  0  0  0  0  0999 V2000
   13.1533   -5.2399   21.0682 C   0  0  0  0  0  0  0  0  0  0  0  0
   10.4729   -4.0295   17.6135 C   0  0  0  0  0  0  0  0  0  0  0  0
   10.4789   -4.3641   20.9564 C   0  0  0  0  0  0  0  0  0  0  0  0
    8.7421   -5.1412   16.3650 C   0  0  0  0  0  0  0  0  0  0  0  0
   11.4353   -2.9204   17.8044 C   0  0  0  0  0  0  0  0  0  0  0  0
   11.1529   -4.3028   22.1277 C   0  0  0  0  0  0  0  0  0  0  0  0
   11.1290   -4.8502   19.8052 C   0  0  0  0  0  0  0  0  0  0  0  0
   12.4329   -4.2159   24.4224 C   0  0  0  0  0  0  0  0  0  0  0  0
    3.4740   -9.0387   16.5022 C   0  0  0  0  0  0  0  0  0  0  0  0
    6.8384   -7.9290   17.5282 N   0  0  0  0  0  0  0  0  0  0  0  0
    9.4126   -5.9853   18.4899 C   0  0  0  0  0  0  0  0  0  0  0  0
    4.2064  -10.3242   18.3302 C   0  0  0  0  0  0  0  0  0  0  0  0
    9.6599   -4.1551   16.4796 N   0  0  0  0  0  0  0  0  0  0  0  0
    7.0644   -6.4612   15.7375 N   0  0  0  0  0  0  0  0  0  0  0  0
    5.3549   -9.6322   18.3190 C   0  0  0  0  0  0  0  0  0  0  0  0
   10.3704   -4.9638   18.6510 C   0  0  0  0  0  0  0  0  0  0  0  0
    5.5935   -8.6419   17.4234 C   0  0  0  0  0  0  0  0  0  0  0  0
   13.0726   -4.6648   23.3394 O   0  0  0  0  0  0  0  0  0  0  0  0
    8.5955   -6.0705   17.3996 C   0  0  0  0  0  0  0  0  0  0  0  0
    4.6223   -8.3832   16.5030 C   0  0  0  0  0  0  0  0  0  0  0  0
   12.4690   -5.2624   19.9024 C   0  0  0  0  0  0  0  0  0  0  0  0
    3.2548   -9.9919   17.4189 C   0  0  0  0  0  0  0  0  0  0  0  0
   12.4767   -4.7393   22.1790 C   0  0  0  0  0  0  0  0  0  0  0  0
    7.8593   -5.3772   15.3569 N   0  0  0  0  0  0  0  0  0  0  0  0
    7.4412   -6.9038   16.9283 C   0  0  0  0  0  0  0  0  0  0  0  0
  1 21  4  0
  1 23  4  0
  2  5  1  0
  2 13  4  0
  2 16  4  0
  3  6  4  0
  3  7  4  0
  4 13  4  0
  4 19  4  0
  4 24  4  0
  6 23  4  0
  7 16  1  0
  7 21  4  0
  8 18  1  0
  9 20  4  0
  9 22  4  0
 10 17  1  0
 10 25  1  0
 11 16  4  0
 11 19  4  0
 12 15  4  0
 12 22  4  0
 14 24  4  0
 14 25  4  0
 15 17  4  0
 17 20  4  0
 18 23  1  0
 19 25  4  0
M  END
$$$$

 Created by Python create_sdf_string function

 25 28  0  0  0  0  0  0  0  0999 V2000
   13.1533   -5.2399   21.0682 C   0  0  0  0  0  0  0  0  0  0  0  0
   10.4729   -4.0295   17.6135 C   0  0  0  0  0  0  0  0  0  0  0  0
   10.4789   -4.3641   20.9564 C   0  0  0  0  0  0  0  0  0  0  0  0
    8.7421   -5.1412   16.3650 C   0  0  0  0  0  0  0  0  0  0  0  0
   11.4353   -2.9204   17.8044 C   0  0  0  0  0  0  0  0  0  0  0  0
   11.1529   -4.3028   22.1277 C   0  0  0  0  0  0  0  0  0  0  0  0
   11.1290   -4.8502   19.8052 C   0  0  0  0  0  0  0  0  0  0  0  0
   12.4329   -4.2159   24.4224 C   0  0  0  0  0  0  0  0  0  0  0  0
    3.4740   -9.0387   16.5022 C   0  0  0  0  0  0  0  0  0  0  0  0
    6.8384   -7.9290   17.5282 N   0  0  0  0  0  0  0  0  0  0  0  0
    9.4126   -5.9853   18.4899 C   0  0  0  0  0  0  0  0  0  0  0  0
    4.2064  -10.3242   18.3302 C   0  0  0  0  0  0  0  0  0  0  0  0
    9.6599   -4.1551   16.4796 N   0  0  0  0  0  0  0  0  0  0  0  0
    7.0644   -6.4612   15.7375 N   0  0  0  0  0  0  0  0  0  0  0  0
    5.3549   -9.6322   18.3190 C   0  0  0  0  0  0  0  0  0  0  0  0
   10.3704   -4.9638   18.6510 C   0  0  0  0  0  0  0  0  0  0  0  0
    5.5935   -8.6419   17.4234 C   0  0  0  0  0  0  0  0  0  0  0  0
   13.0726   -4.6648   23.3394 O   0  0  0  0  0  0  0  0  0  0  0  0
    8.5955   -6.0705   17.3996 C   0  0  0  0  0  0  0  0  0  0  0  0
    4.6223   -8.3832   16.5030 C   0  0  0  0  0  0  0  0  0  0  0  0
   12.4690   -5.2624   19.9024 C   0  0  0  0  0  0  0  0  0  0  0  0
    3.2548   -9.9919   17.4189 C   0  0  0  0  0  0  0  0  0  0  0  0
   12.4767   -4.7393   22.1790 C   0  0  0  0  0  0  0  0  0  0  0  0
    7.8593   -5.3772   15.3569 N   0  0  0  0  0  0  0  0  0  0  0  0
    7.4412   -6.9038   16.9283 C   0  0  0  0  0  0  0  0  0  0  0  0
  1 21  4  0
  1 23  4  0
  2  5  1  0
  2 13  4  0
  2 16  4  0
  3  6  4  0
  3  7  4  0
  4 13  4  0
  4 19  4  0
  4 24  4  0
  6 23  4  0
  7 16  1  0
  7 21  4  0
  8 18  1  0
  9 20  4  0
  9 22  4  0
 10 17  1  0
 10 25  1  0
 11 16  4  0
 11 19  4  0
 12 15  4  0
 12 22  4  0
 14 24  4  0
 14 25  4  0
 15 17  4  0
 17 20  4  0
 18 23  1  0
 19 25  4  0
M  END
$$$$

 Created by Python create_sdf_string function

 25 28  0  0  0  0  0  0  0  0999 V2000
   13.1533   -5.2399   21.0682 C   0  0  0  0  0  0  0  0  0  0  0  0
   10.4729   -4.0295   17.6135 C   0  0  0  0  0  0  0  0  0  0  0  0
   10.4789   -4.3641   20.9564 C   0  0  0  0  0  0  0  0  0  0  0  0
    8.7421   -5.1412   16.3650 C   0  0  0  0  0  0  0  0  0  0  0  0
   11.4353   -2.9204   17.8044 C   0  0  0  0  0  0  0  0  0  0  0  0
   11.1529   -4.3028   22.1277 C   0  0  0  0  0  0  0  0  0  0  0  0
   11.1290   -4.8502   19.8052 C   0  0  0  0  0  0  0  0  0  0  0  0
   12.4329   -4.2159   24.4224 C   0  0  0  0  0  0  0  0  0  0  0  0
    3.4740   -9.0387   16.5022 C   0  0  0  0  0  0  0  0  0  0  0  0
    6.8384   -7.9290   17.5282 N   0  0  0  0  0  0  0  0  0  0  0  0
    9.4126   -5.9853   18.4899 C   0  0  0  0  0  0  0  0  0  0  0  0
    4.2064  -10.3242   18.3302 C   0  0  0  0  0  0  0  0  0  0  0  0
    9.6599   -4.1551   16.4796 N   0  0  0  0  0  0  0  0  0  0  0  0
    7.0644   -6.4612   15.7375 N   0  0  0  0  0  0  0  0  0  0  0  0
    5.3549   -9.6322   18.3190 C   0  0  0  0  0  0  0  0  0  0  0  0
   10.3704   -4.9638   18.6510 C   0  0  0  0  0  0  0  0  0  0  0  0
    5.5935   -8.6419   17.4234 C   0  0  0  0  0  0  0  0  0  0  0  0
   13.0726   -4.6648   23.3394 O   0  0  0  0  0  0  0  0  0  0  0  0
    8.5955   -6.0705   17.3996 C   0  0  0  0  0  0  0  0  0  0  0  0
    4.6223   -8.3832   16.5030 C   0  0  0  0  0  0  0  0  0  0  0  0
   12.4690   -5.2624   19.9024 C   0  0  0  0  0  0  0  0  0  0  0  0
    3.2548   -9.9919   17.4189 C   0  0  0  0  0  0  0  0  0  0  0  0
   12.4767   -4.7393   22.1790 C   0  0  0  0  0  0  0  0  0  0  0  0
    7.8593   -5.3772   15.3569 N   0  0  0  0  0  0  0  0  0  0  0  0
    7.4412   -6.9038   16.9283 C   0  0  0  0  0  0  0  0  0  0  0  0
  1 21  4  0
  1 23  4  0
  2  5  1  0
  2 13  4  0
  2 16  4  0
  3  6  4  0
  3  7  4  0
  4 13  4  0
  4 19  4  0
  4 24  4  0
  6 23  4  0
  7 16  1  0
  7 21  4  0
  8 18  1  0
  9 20  4  0
  9 22  4  0
 10 17  1  0
 10 25  1  0
 11 16  4  0
 11 19  4  0
 12 15  4  0
 12 22  4  0
 14 24  4  0
 14 25  4  0
 15 17  4  0
 17 20  4  0
 18 23  1  0
 19 25  4  0
M  END
$$$$

 Created by Python create_sdf_string function

 25 28  0  0  0  0  0  0  0  0999 V2000
   13.1533   -5.2399   21.0682 C   0  0  0  0  0  0  0  0  0  0  0  0
   10.4729   -4.0295   17.6135 C   0  0  0  0  0  0  0  0  0  0  0  0
   10.4789   -4.3641   20.9564 C   0  0  0  0  0  0  0  0  0  0  0  0
    8.7421   -5.1412   16.3650 C   0  0  0  0  0  0  0  0  0  0  0  0
   11.4353   -2.9204   17.8044 C   0  0  0  0  0  0  0  0  0  0  0  0
   11.1529   -4.3028   22.1277 C   0  0  0  0  0  0  0  0  0  0  0  0
   11.1290   -4.8502   19.8052 C   0  0  0  0  0  0  0  0  0  0  0  0
   12.4329   -4.2159   24.4224 C   0  0  0  0  0  0  0  0  0  0  0  0
    3.4740   -9.0387   16.5022 C   0  0  0  0  0  0  0  0  0  0  0  0
    6.8384   -7.9290   17.5282 N   0  0  0  0  0  0  0  0  0  0  0  0
    9.4126   -5.9853   18.4899 C   0  0  0  0  0  0  0  0  0  0  0  0
    4.2064  -10.3242   18.3302 C   0  0  0  0  0  0  0  0  0  0  0  0
    9.6599   -4.1551   16.4796 N   0  0  0  0  0  0  0  0  0  0  0  0
    7.0644   -6.4612   15.7375 N   0  0  0  0  0  0  0  0  0  0  0  0
    5.3549   -9.6322   18.3190 C   0  0  0  0  0  0  0  0  0  0  0  0
   10.3704   -4.9638   18.6510 C   0  0  0  0  0  0  0  0  0  0  0  0
    5.5935   -8.6419   17.4234 C   0  0  0  0  0  0  0  0  0  0  0  0
   13.0726   -4.6648   23.3394 O   0  0  0  0  0  0  0  0  0  0  0  0
    8.5955   -6.0705   17.3996 C   0  0  0  0  0  0  0  0  0  0  0  0
    4.6223   -8.3832   16.5030 C   0  0  0  0  0  0  0  0  0  0  0  0
   12.4690   -5.2624   19.9024 C   0  0  0  0  0  0  0  0  0  0  0  0
    3.2548   -9.9919   17.4189 C   0  0  0  0  0  0  0  0  0  0  0  0
   12.4767   -4.7393   22.1790 C   0  0  0  0  0  0  0  0  0  0  0  0
    7.8593   -5.3772   15.3569 N   0  0  0  0  0  0  0  0  0  0  0  0
    7.4412   -6.9038   16.9283 C   0  0  0  0  0  0  0  0  0  0  0  0
  1 21  4  0
  1 23  4  0
  2  5  1  0
  2 13  4  0
  2 16  4  0
  3  6  4  0
  3  7  4  0
  4 13  4  0
  4 19  4  0
  4 24  4  0
  6 23  4  0
  7 16  1  0
  7 21  4  0
  8 18  1  0
  9 20  4  0
  9 22  4  0
 10 17  1  0
 10 25  1  0
 11 16  4  0
 11 19  4  0
 12 15  4  0
 12 22  4  0
 14 24  4  0
 14 25  4  0
 15 17  4  0
 17 20  4  0
 18 23  1  0
 19 25  4  0
M  END
$$$$

 Created by Python create_sdf_string function

 25 28  0  0  0  0  0  0  0  0999 V2000
   13.1533   -5.2399   21.0682 C   0  0  0  0  0  0  0  0  0  0  0  0
   10.4729   -4.0295   17.6135 C   0  0  0  0  0  0  0  0  0  0  0  0
   10.4789   -4.3641   20.9564 C   0  0  0  0  0  0  0  0  0  0  0  0
    8.7421   -5.1412   16.3650 C   0  0  0  0  0  0  0  0  0  0  0  0
   11.4353   -2.9204   17.8044 C   0  0  0  0  0  0  0  0  0  0  0  0
   11.1529   -4.3028   22.1277 C   0  0  0  0  0  0  0  0  0  0  0  0
   11.1290   -4.8502   19.8052 C   0  0  0  0  0  0  0  0  0  0  0  0
   12.4329   -4.2159   24.4224 C   0  0  0  0  0  0  0  0  0  0  0  0
    3.4740   -9.0387   16.5022 C   0  0  0  0  0  0  0  0  0  0  0  0
    6.8384   -7.9290   17.5282 N   0  0  0  0  0  0  0  0  0  0  0  0
    9.4126   -5.9853   18.4899 C   0  0  0  0  0  0  0  0  0  0  0  0
    4.2064  -10.3242   18.3302 C   0  0  0  0  0  0  0  0  0  0  0  0
    9.6599   -4.1551   16.4796 N   0  0  0  0  0  0  0  0  0  0  0  0
    7.0644   -6.4612   15.7375 N   0  0  0  0  0  0  0  0  0  0  0  0
    5.3549   -9.6322   18.3190 C   0  0  0  0  0  0  0  0  0  0  0  0
   10.3704   -4.9638   18.6510 C   0  0  0  0  0  0  0  0  0  0  0  0
    5.5935   -8.6419   17.4234 C   0  0  0  0  0  0  0  0  0  0  0  0
   13.0726   -4.6648   23.3394 O   0  0  0  0  0  0  0  0  0  0  0  0
    8.5955   -6.0705   17.3996 C   0  0  0  0  0  0  0  0  0  0  0  0
    4.6223   -8.3832   16.5030 C   0  0  0  0  0  0  0  0  0  0  0  0
   12.4690   -5.2624   19.9024 C   0  0  0  0  0  0  0  0  0  0  0  0
    3.2548   -9.9919   17.4189 C   0  0  0  0  0  0  0  0  0  0  0  0
   12.4767   -4.7393   22.1790 C   0  0  0  0  0  0  0  0  0  0  0  0
    7.8593   -5.3772   15.3569 N   0  0  0  0  0  0  0  0  0  0  0  0
    7.4412   -6.9038   16.9283 C   0  0  0  0  0  0  0  0  0  0  0  0
  1 21  4  0
  1 23  4  0
  2  5  1  0
  2 13  4  0
  2 16  4  0
  3  6  4  0
  3  7  4  0
  4 13  4  0
  4 19  4  0
  4 24  4  0
  6 23  4  0
  7 16  1  0
  7 21  4  0
  8 18  1  0
  9 20  4  0
  9 22  4  0
 10 17  1  0
 10 25  1  0
 11 16  4  0
 11 19  4  0
 12 15  4  0
 12 22  4  0
 14 24  4  0
 14 25  4  0
 15 17  4  0
 17 20  4  0
 18 23  1  0
 19 25  4  0
M  END
$$$$

 Created by Python create_sdf_string function

 25 28  0  0  0  0  0  0  0  0999 V2000
   13.1533   -5.2399   21.0682 C   0  0  0  0  0  0  0  0  0  0  0  0
   10.4729   -4.0295   17.6135 C   0  0  0  0  0  0  0  0  0  0  0  0
   10.4789   -4.3641   20.9564 C   0  0  0  0  0  0  0  0  0  0  0  0
    8.7421   -5.1412   16.3650 C   0  0  0  0  0  0  0  0  0  0  0  0
   11.4353   -2.9204   17.8044 C   0  0  0  0  0  0  0  0  0  0  0  0
   11.1529   -4.3028   22.1277 C   0  0  0  0  0  0  0  0  0  0  0  0
   11.1290   -4.8502   19.8052 C   0  0  0  0  0  0  0  0  0  0  0  0
   12.4329   -4.2159   24.4224 C   0  0  0  0  0  0  0  0  0  0  0  0
    3.4740   -9.0387   16.5022 C   0  0  0  0  0  0  0  0  0  0  0  0
    6.8384   -7.9290   17.5282 N   0  0  0  0  0  0  0  0  0  0  0  0
    9.4126   -5.9853   18.4899 C   0  0  0  0  0  0  0  0  0  0  0  0
    4.2064  -10.3242   18.3302 C   0  0  0  0  0  0  0  0  0  0  0  0
    9.6599   -4.1551   16.4796 N   0  0  0  0  0  0  0  0  0  0  0  0
    7.0644   -6.4612   15.7375 N   0  0  0  0  0  0  0  0  0  0  0  0
    5.3549   -9.6322   18.3190 C   0  0  0  0  0  0  0  0  0  0  0  0
   10.3704   -4.9638   18.6510 C   0  0  0  0  0  0  0  0  0  0  0  0
    5.5935   -8.6419   17.4234 C   0  0  0  0  0  0  0  0  0  0  0  0
   13.0726   -4.6648   23.3394 O   0  0  0  0  0  0  0  0  0  0  0  0
    8.5955   -6.0705   17.3996 C   0  0  0  0  0  0  0  0  0  0  0  0
    4.6223   -8.3832   16.5030 C   0  0  0  0  0  0  0  0  0  0  0  0
   12.4690   -5.2624   19.9024 C   0  0  0  0  0  0  0  0  0  0  0  0
    3.2548   -9.9919   17.4189 C   0  0  0  0  0  0  0  0  0  0  0  0
   12.4767   -4.7393   22.1790 C   0  0  0  0  0  0  0  0  0  0  0  0
    7.8593   -5.3772   15.3569 N   0  0  0  0  0  0  0  0  0  0  0  0
    7.4412   -6.9038   16.9283 C   0  0  0  0  0  0  0  0  0  0  0  0
  1 21  4  0
  1 23  4  0
  2  5  1  0
  2 13  4  0
  2 16  4  0
  3  6  4  0
  3  7  4  0
  4 13  4  0
  4 19  4  0
  4 24  4  0
  6 23  4  0
  7 16  1  0
  7 21  4  0
  8 18  1  0
  9 20  4  0
  9 22  4  0
 10 17  1  0
 10 25  1  0
 11 16  4  0
 11 19  4  0
 12 15  4  0
 12 22  4  0
 14 24  4  0
 14 25  4  0
 15 17  4  0
 17 20  4  0
 18 23  1  0
 19 25  4  0
M  END
$$$$

 Created by Python create_sdf_string function

 25 28  0  0  0  0  0  0  0  0999 V2000
   13.1533   -5.2399   21.0682 C   0  0  0  0  0  0  0  0  0  0  0  0
   10.4729   -4.0295   17.6135 C   0  0  0  0  0  0  0  0  0  0  0  0
   10.4789   -4.3641   20.9564 C   0  0  0  0  0  0  0  0  0  0  0  0
    8.7421   -5.1412   16.3650 C   0  0  0  0  0  0  0  0  0  0  0  0
   11.4353   -2.9204   17.8044 C   0  0  0  0  0  0  0  0  0  0  0  0
   11.1529   -4.3028   22.1277 C   0  0  0  0  0  0  0  0  0  0  0  0
   11.1290   -4.8502   19.8052 C   0  0  0  0  0  0  0  0  0  0  0  0
   12.4329   -4.2159   24.4224 C   0  0  0  0  0  0  0  0  0  0  0  0
    3.4740   -9.0387   16.5022 C   0  0  0  0  0  0  0  0  0  0  0  0
    6.8384   -7.9290   17.5282 N   0  0  0  0  0  0  0  0  0  0  0  0
    9.4126   -5.9853   18.4899 C   0  0  0  0  0  0  0  0  0  0  0  0
    4.2064  -10.3242   18.3302 C   0  0  0  0  0  0  0  0  0  0  0  0
    9.6599   -4.1551   16.4796 N   0  0  0  0  0  0  0  0  0  0  0  0
    7.0644   -6.4612   15.7375 N   0  0  0  0  0  0  0  0  0  0  0  0
    5.3549   -9.6322   18.3190 C   0  0  0  0  0  0  0  0  0  0  0  0
   10.3704   -4.9638   18.6510 C   0  0  0  0  0  0  0  0  0  0  0  0
    5.5935   -8.6419   17.4234 C   0  0  0  0  0  0  0  0  0  0  0  0
   13.0726   -4.6648   23.3394 O   0  0  0  0  0  0  0  0  0  0  0  0
    8.5955   -6.0705   17.3996 C   0  0  0  0  0  0  0  0  0  0  0  0
    4.6223   -8.3832   16.5030 C   0  0  0  0  0  0  0  0  0  0  0  0
   12.4690   -5.2624   19.9024 C   0  0  0  0  0  0  0  0  0  0  0  0
    3.2548   -9.9919   17.4189 C   0  0  0  0  0  0  0  0  0  0  0  0
   12.4767   -4.7393   22.1790 C   0  0  0  0  0  0  0  0  0  0  0  0
    7.8593   -5.3772   15.3569 N   0  0  0  0  0  0  0  0  0  0  0  0
    7.4412   -6.9038   16.9283 C   0  0  0  0  0  0  0  0  0  0  0  0
  1 21  4  0
  1 23  4  0
  2  5  1  0
  2 13  4  0
  2 16  4  0
  3  6  4  0
  3  7  4  0
  4 13  4  0
  4 19  4  0
  4 24  4  0
  6 23  4  0
  7 16  1  0
  7 21  4  0
  8 18  1  0
  9 20  4  0
  9 22  4  0
 10 17  1  0
 10 25  1  0
 11 16  4  0
 11 19  4  0
 12 15  4  0
 12 22  4  0
 14 24  4  0
 14 25  4  0
 15 17  4  0
 17 20  4  0
 18 23  1  0
 19 25  4  0
M  END
$$$$

 Created by Python create_sdf_string function

 25 28  0  0  0  0  0  0  0  0999 V2000
   13.1533   -5.2399   21.0682 C   0  0  0  0  0  0  0  0  0  0  0  0
   10.4729   -4.0295   17.6135 C   0  0  0  0  0  0  0  0  0  0  0  0
   10.4789   -4.3641   20.9564 C   0  0  0  0  0  0  0  0  0  0  0  0
    8.7421   -5.1412   16.3650 C   0  0  0  0  0  0  0  0  0  0  0  0
   11.4353   -2.9204   17.8044 C   0  0  0  0  0  0  0  0  0  0  0  0
   11.1529   -4.3028   22.1277 C   0  0  0  0  0  0  0  0  0  0  0  0
   11.1290   -4.8502   19.8052 C   0  0  0  0  0  0  0  0  0  0  0  0
   12.4329   -4.2159   24.4224 C   0  0  0  0  0  0  0  0  0  0  0  0
    3.4740   -9.0387   16.5022 C   0  0  0  0  0  0  0  0  0  0  0  0
    6.8384   -7.9290   17.5282 N   0  0  0  0  0  0  0  0  0  0  0  0
    9.4126   -5.9853   18.4899 C   0  0  0  0  0  0  0  0  0  0  0  0
    4.2064  -10.3242   18.3302 C   0  0  0  0  0  0  0  0  0  0  0  0
    9.6599   -4.1551   16.4796 N   0  0  0  0  0  0  0  0  0  0  0  0
    7.0644   -6.4612   15.7375 N   0  0  0  0  0  0  0  0  0  0  0  0
    5.3549   -9.6322   18.3190 C   0  0  0  0  0  0  0  0  0  0  0  0
   10.3704   -4.9638   18.6510 C   0  0  0  0  0  0  0  0  0  0  0  0
    5.5935   -8.6419   17.4234 C   0  0  0  0  0  0  0  0  0  0  0  0
   13.0726   -4.6648   23.3394 O   0  0  0  0  0  0  0  0  0  0  0  0
    8.5955   -6.0705   17.3996 C   0  0  0  0  0  0  0  0  0  0  0  0
    4.6223   -8.3832   16.5030 C   0  0  0  0  0  0  0  0  0  0  0  0
   12.4690   -5.2624   19.9024 C   0  0  0  0  0  0  0  0  0  0  0  0
    3.2548   -9.9919   17.4189 C   0  0  0  0  0  0  0  0  0  0  0  0
   12.4767   -4.7393   22.1790 C   0  0  0  0  0  0  0  0  0  0  0  0
    7.8593   -5.3772   15.3569 N   0  0  0  0  0  0  0  0  0  0  0  0
    7.4412   -6.9038   16.9283 C   0  0  0  0  0  0  0  0  0  0  0  0
  1 21  4  0
  1 23  4  0
  2  5  1  0
  2 13  4  0
  2 16  4  0
  3  6  4  0
  3  7  4  0
  4 13  4  0
  4 19  4  0
  4 24  4  0
  6 23  4  0
  7 16  1  0
  7 21  4  0
  8 18  1  0
  9 20  4  0
  9 22  4  0
 10 17  1  0
 10 25  1  0
 11 16  4  0
 11 19  4  0
 12 15  4  0
 12 22  4  0
 14 24  4  0
 14 25  4  0
 15 17  4  0
 17 20  4  0
 18 23  1  0
 19 25  4  0
M  END
$$$$

 Created by Python create_sdf_string function

 25 28  0  0  0  0  0  0  0  0999 V2000
   13.1533   -5.2399   21.0682 C   0  0  0  0  0  0  0  0  0  0  0  0
   10.4729   -4.0295   17.6135 C   0  0  0  0  0  0  0  0  0  0  0  0
   10.4789   -4.3641   20.9564 C   0  0  0  0  0  0  0  0  0  0  0  0
    8.7421   -5.1412   16.3650 C   0  0  0  0  0  0  0  0  0  0  0  0
   11.4353   -2.9204   17.8044 C   0  0  0  0  0  0  0  0  0  0  0  0
   11.1529   -4.3028   22.1277 C   0  0  0  0  0  0  0  0  0  0  0  0
   11.1290   -4.8502   19.8052 C   0  0  0  0  0  0  0  0  0  0  0  0
   12.4329   -4.2159   24.4224 C   0  0  0  0  0  0  0  0  0  0  0  0
    3.4740   -9.0387   16.5022 C   0  0  0  0  0  0  0  0  0  0  0  0
    6.8384   -7.9290   17.5282 N   0  0  0  0  0  0  0  0  0  0  0  0
    9.4126   -5.9853   18.4899 C   0  0  0  0  0  0  0  0  0  0  0  0
    4.2064  -10.3242   18.3302 C   0  0  0  0  0  0  0  0  0  0  0  0
    9.6599   -4.1551   16.4796 N   0  0  0  0  0  0  0  0  0  0  0  0
    7.0644   -6.4612   15.7375 N   0  0  0  0  0  0  0  0  0  0  0  0
    5.3549   -9.6322   18.3190 C   0  0  0  0  0  0  0  0  0  0  0  0
   10.3704   -4.9638   18.6510 C   0  0  0  0  0  0  0  0  0  0  0  0
    5.5935   -8.6419   17.4234 C   0  0  0  0  0  0  0  0  0  0  0  0
   13.0726   -4.6648   23.3394 O   0  0  0  0  0  0  0  0  0  0  0  0
    8.5955   -6.0705   17.3996 C   0  0  0  0  0  0  0  0  0  0  0  0
    4.6223   -8.3832   16.5030 C   0  0  0  0  0  0  0  0  0  0  0  0
   12.4690   -5.2624   19.9024 C   0  0  0  0  0  0  0  0  0  0  0  0
    3.2548   -9.9919   17.4189 C   0  0  0  0  0  0  0  0  0  0  0  0
   12.4767   -4.7393   22.1790 C   0  0  0  0  0  0  0  0  0  0  0  0
    7.8593   -5.3772   15.3569 N   0  0  0  0  0  0  0  0  0  0  0  0
    7.4412   -6.9038   16.9283 C   0  0  0  0  0  0  0  0  0  0  0  0
  1 21  4  0
  1 23  4  0
  2  5  1  0
  2 13  4  0
  2 16  4  0
  3  6  4  0
  3  7  4  0
  4 13  4  0
  4 19  4  0
  4 24  4  0
  6 23  4  0
  7 16  1  0
  7 21  4  0
  8 18  1  0
  9 20  4  0
  9 22  4  0
 10 17  1  0
 10 25  1  0
 11 16  4  0
 11 19  4  0
 12 15  4  0
 12 22  4  0
 14 24  4  0
 14 25  4  0
 15 17  4  0
 17 20  4  0
 18 23  1  0
 19 25  4  0
M  END
$$$$

 Created by Python create_sdf_string function

 25 28  0  0  0  0  0  0  0  0999 V2000
   13.1533   -5.2399   21.0682 C   0  0  0  0  0  0  0  0  0  0  0  0
   10.4729   -4.0295   17.6135 C   0  0  0  0  0  0  0  0  0  0  0  0
   10.4789   -4.3641   20.9564 C   0  0  0  0  0  0  0  0  0  0  0  0
    8.7421   -5.1412   16.3650 C   0  0  0  0  0  0  0  0  0  0  0  0
   11.4353   -2.9204   17.8044 C   0  0  0  0  0  0  0  0  0  0  0  0
   11.1529   -4.3028   22.1277 C   0  0  0  0  0  0  0  0  0  0  0  0
   11.1290   -4.8502   19.8052 C   0  0  0  0  0  0  0  0  0  0  0  0
   12.4329   -4.2159   24.4224 C   0  0  0  0  0  0  0  0  0  0  0  0
    3.4740   -9.0387   16.5022 C   0  0  0  0  0  0  0  0  0  0  0  0
    6.8384   -7.9290   17.5282 N   0  0  0  0  0  0  0  0  0  0  0  0
    9.4126   -5.9853   18.4899 C   0  0  0  0  0  0  0  0  0  0  0  0
    4.2064  -10.3242   18.3302 C   0  0  0  0  0  0  0  0  0  0  0  0
    9.6599   -4.1551   16.4796 N   0  0  0  0  0  0  0  0  0  0  0  0
    7.0644   -6.4612   15.7375 N   0  0  0  0  0  0  0  0  0  0  0  0
    5.3549   -9.6322   18.3190 C   0  0  0  0  0  0  0  0  0  0  0  0
   10.3704   -4.9638   18.6510 C   0  0  0  0  0  0  0  0  0  0  0  0
    5.5935   -8.6419   17.4234 C   0  0  0  0  0  0  0  0  0  0  0  0
   13.0726   -4.6648   23.3394 O   0  0  0  0  0  0  0  0  0  0  0  0
    8.5955   -6.0705   17.3996 C   0  0  0  0  0  0  0  0  0  0  0  0
    4.6223   -8.3832   16.5030 C   0  0  0  0  0  0  0  0  0  0  0  0
   12.4690   -5.2624   19.9024 C   0  0  0  0  0  0  0  0  0  0  0  0
    3.2548   -9.9919   17.4189 C   0  0  0  0  0  0  0  0  0  0  0  0
   12.4767   -4.7393   22.1790 C   0  0  0  0  0  0  0  0  0  0  0  0
    7.8593   -5.3772   15.3569 N   0  0  0  0  0  0  0  0  0  0  0  0
    7.4412   -6.9038   16.9283 C   0  0  0  0  0  0  0  0  0  0  0  0
  1 21  4  0
  1 23  4  0
  2  5  1  0
  2 13  4  0
  2 16  4  0
  3  6  4  0
  3  7  4  0
  4 13  4  0
  4 19  4  0
  4 24  4  0
  6 23  4  0
  7 16  1  0
  7 21  4  0
  8 18  1  0
  9 20  4  0
  9 22  4  0
 10 17  1  0
 10 25  1  0
 11 16  4  0
 11 19  4  0
 12 15  4  0
 12 22  4  0
 14 24  4  0
 14 25  4  0
 15 17  4  0
 17 20  4  0
 18 23  1  0
 19 25  4  0
M  END
$$$$

 Created by Python create_sdf_string function

 25 28  0  0  0  0  0  0  0  0999 V2000
   13.1533   -5.2399   21.0682 C   0  0  0  0  0  0  0  0  0  0  0  0
   10.4729   -4.0295   17.6135 C   0  0  0  0  0  0  0  0  0  0  0  0
   10.4789   -4.3641   20.9564 C   0  0  0  0  0  0  0  0  0  0  0  0
    8.7421   -5.1412   16.3650 C   0  0  0  0  0  0  0  0  0  0  0  0
   11.4353   -2.9204   17.8044 C   0  0  0  0  0  0  0  0  0  0  0  0
   11.1529   -4.3028   22.1277 C   0  0  0  0  0  0  0  0  0  0  0  0
   11.1290   -4.8502   19.8052 C   0  0  0  0  0  0  0  0  0  0  0  0
   12.4329   -4.2159   24.4224 C   0  0  0  0  0  0  0  0  0  0  0  0
    3.4740   -9.0387   16.5022 C   0  0  0  0  0  0  0  0  0  0  0  0
    6.8384   -7.9290   17.5282 N   0  0  0  0  0  0  0  0  0  0  0  0
    9.4126   -5.9853   18.4899 C   0  0  0  0  0  0  0  0  0  0  0  0
    4.2064  -10.3242   18.3302 C   0  0  0  0  0  0  0  0  0  0  0  0
    9.6599   -4.1551   16.4796 N   0  0  0  0  0  0  0  0  0  0  0  0
    7.0644   -6.4612   15.7375 N   0  0  0  0  0  0  0  0  0  0  0  0
    5.3549   -9.6322   18.3190 C   0  0  0  0  0  0  0  0  0  0  0  0
   10.3704   -4.9638   18.6510 C   0  0  0  0  0  0  0  0  0  0  0  0
    5.5935   -8.6419   17.4234 C   0  0  0  0  0  0  0  0  0  0  0  0
   13.0726   -4.6648   23.3394 O   0  0  0  0  0  0  0  0  0  0  0  0
    8.5955   -6.0705   17.3996 C   0  0  0  0  0  0  0  0  0  0  0  0
    4.6223   -8.3832   16.5030 C   0  0  0  0  0  0  0  0  0  0  0  0
   12.4690   -5.2624   19.9024 C   0  0  0  0  0  0  0  0  0  0  0  0
    3.2548   -9.9919   17.4189 C   0  0  0  0  0  0  0  0  0  0  0  0
   12.4767   -4.7393   22.1790 C   0  0  0  0  0  0  0  0  0  0  0  0
    7.8593   -5.3772   15.3569 N   0  0  0  0  0  0  0  0  0  0  0  0
    7.4412   -6.9038   16.9283 C   0  0  0  0  0  0  0  0  0  0  0  0
  1 21  4  0
  1 23  4  0
  2  5  1  0
  2 13  4  0
  2 16  4  0
  3  6  4  0
  3  7  4  0
  4 13  4  0
  4 19  4  0
  4 24  4  0
  6 23  4  0
  7 16  1  0
  7 21  4  0
  8 18  1  0
  9 20  4  0
  9 22  4  0
 10 17  1  0
 10 25  1  0
 11 16  4  0
 11 19  4  0
 12 15  4  0
 12 22  4  0
 14 24  4  0
 14 25  4  0
 15 17  4  0
 17 20  4  0
 18 23  1  0
 19 25  4  0
M  END
$$$$

 Created by Python create_sdf_string function

 25 28  0  0  0  0  0  0  0  0999 V2000
   13.1533   -5.2399   21.0682 C   0  0  0  0  0  0  0  0  0  0  0  0
   10.4729   -4.0295   17.6135 C   0  0  0  0  0  0  0  0  0  0  0  0
   10.4789   -4.3641   20.9564 C   0  0  0  0  0  0  0  0  0  0  0  0
    8.7421   -5.1412   16.3650 C   0  0  0  0  0  0  0  0  0  0  0  0
   11.4353   -2.9204   17.8044 C   0  0  0  0  0  0  0  0  0  0  0  0
   11.1529   -4.3028   22.1277 C   0  0  0  0  0  0  0  0  0  0  0  0
   11.1290   -4.8502   19.8052 C   0  0  0  0  0  0  0  0  0  0  0  0
   12.4329   -4.2159   24.4224 C   0  0  0  0  0  0  0  0  0  0  0  0
    3.4740   -9.0387   16.5022 C   0  0  0  0  0  0  0  0  0  0  0  0
    6.8384   -7.9290   17.5282 N   0  0  0  0  0  0  0  0  0  0  0  0
    9.4126   -5.9853   18.4899 C   0  0  0  0  0  0  0  0  0  0  0  0
    4.2064  -10.3242   18.3302 C   0  0  0  0  0  0  0  0  0  0  0  0
    9.6599   -4.1551   16.4796 N   0  0  0  0  0  0  0  0  0  0  0  0
    7.0644   -6.4612   15.7375 N   0  0  0  0  0  0  0  0  0  0  0  0
    5.3549   -9.6322   18.3190 C   0  0  0  0  0  0  0  0  0  0  0  0
   10.3704   -4.9638   18.6510 C   0  0  0  0  0  0  0  0  0  0  0  0
    5.5935   -8.6419   17.4234 C   0  0  0  0  0  0  0  0  0  0  0  0
   13.0726   -4.6648   23.3394 O   0  0  0  0  0  0  0  0  0  0  0  0
    8.5955   -6.0705   17.3996 C   0  0  0  0  0  0  0  0  0  0  0  0
    4.6223   -8.3832   16.5030 C   0  0  0  0  0  0  0  0  0  0  0  0
   12.4690   -5.2624   19.9024 C   0  0  0  0  0  0  0  0  0  0  0  0
    3.2548   -9.9919   17.4189 C   0  0  0  0  0  0  0  0  0  0  0  0
   12.4767   -4.7393   22.1790 C   0  0  0  0  0  0  0  0  0  0  0  0
    7.8593   -5.3772   15.3569 N   0  0  0  0  0  0  0  0  0  0  0  0
    7.4412   -6.9038   16.9283 C   0  0  0  0  0  0  0  0  0  0  0  0
  1 21  4  0
  1 23  4  0
  2  5  1  0
  2 13  4  0
  2 16  4  0
  3  6  4  0
  3  7  4  0
  4 13  4  0
  4 19  4  0
  4 24  4  0
  6 23  4  0
  7 16  1  0
  7 21  4  0
  8 18  1  0
  9 20  4  0
  9 22  4  0
 10 17  1  0
 10 25  1  0
 11 16  4  0
 11 19  4  0
 12 15  4  0
 12 22  4  0
 14 24  4  0
 14 25  4  0
 15 17  4  0
 17 20  4  0
 18 23  1  0
 19 25  4  0
M  END
$$$$

 Created by Python create_sdf_string function

 25 28  0  0  0  0  0  0  0  0999 V2000
   13.1533   -5.2399   21.0682 C   0  0  0  0  0  0  0  0  0  0  0  0
   10.4729   -4.0295   17.6135 C   0  0  0  0  0  0  0  0  0  0  0  0
   10.4789   -4.3641   20.9564 C   0  0  0  0  0  0  0  0  0  0  0  0
    8.7421   -5.1412   16.3650 C   0  0  0  0  0  0  0  0  0  0  0  0
   11.4353   -2.9204   17.8044 C   0  0  0  0  0  0  0  0  0  0  0  0
   11.1529   -4.3028   22.1277 C   0  0  0  0  0  0  0  0  0  0  0  0
   11.1290   -4.8502   19.8052 C   0  0  0  0  0  0  0  0  0  0  0  0
   12.4329   -4.2159   24.4224 C   0  0  0  0  0  0  0  0  0  0  0  0
    3.4740   -9.0387   16.5022 C   0  0  0  0  0  0  0  0  0  0  0  0
    6.8384   -7.9290   17.5282 N   0  0  0  0  0  0  0  0  0  0  0  0
    9.4126   -5.9853   18.4899 C   0  0  0  0  0  0  0  0  0  0  0  0
    4.2064  -10.3242   18.3302 C   0  0  0  0  0  0  0  0  0  0  0  0
    9.6599   -4.1551   16.4796 N   0  0  0  0  0  0  0  0  0  0  0  0
    7.0644   -6.4612   15.7375 N   0  0  0  0  0  0  0  0  0  0  0  0
    5.3549   -9.6322   18.3190 C   0  0  0  0  0  0  0  0  0  0  0  0
   10.3704   -4.9638   18.6510 C   0  0  0  0  0  0  0  0  0  0  0  0
    5.5935   -8.6419   17.4234 C   0  0  0  0  0  0  0  0  0  0  0  0
   13.0726   -4.6648   23.3394 O   0  0  0  0  0  0  0  0  0  0  0  0
    8.5955   -6.0705   17.3996 C   0  0  0  0  0  0  0  0  0  0  0  0
    4.6223   -8.3832   16.5030 C   0  0  0  0  0  0  0  0  0  0  0  0
   12.4690   -5.2624   19.9024 C   0  0  0  0  0  0  0  0  0  0  0  0
    3.2548   -9.9919   17.4189 C   0  0  0  0  0  0  0  0  0  0  0  0
   12.4767   -4.7393   22.1790 C   0  0  0  0  0  0  0  0  0  0  0  0
    7.8593   -5.3772   15.3569 N   0  0  0  0  0  0  0  0  0  0  0  0
    7.4412   -6.9038   16.9283 C   0  0  0  0  0  0  0  0  0  0  0  0
  1 21  4  0
  1 23  4  0
  2  5  1  0
  2 13  4  0
  2 16  4  0
  3  6  4  0
  3  7  4  0
  4 13  4  0
  4 19  4  0
  4 24  4  0
  6 23  4  0
  7 16  1  0
  7 21  4  0
  8 18  1  0
  9 20  4  0
  9 22  4  0
 10 17  1  0
 10 25  1  0
 11 16  4  0
 11 19  4  0
 12 15  4  0
 12 22  4  0
 14 24  4  0
 14 25  4  0
 15 17  4  0
 17 20  4  0
 18 23  1  0
 19 25  4  0
M  END
$$$$

 Created by Python create_sdf_string function

 25 28  0  0  0  0  0  0  0  0999 V2000
   13.1533   -5.2399   21.0682 C   0  0  0  0  0  0  0  0  0  0  0  0
   10.4729   -4.0295   17.6135 C   0  0  0  0  0  0  0  0  0  0  0  0
   10.4789   -4.3641   20.9564 C   0  0  0  0  0  0  0  0  0  0  0  0
    8.7421   -5.1412   16.3650 C   0  0  0  0  0  0  0  0  0  0  0  0
   11.4353   -2.9204   17.8044 C   0  0  0  0  0  0  0  0  0  0  0  0
   11.1529   -4.3028   22.1277 C   0  0  0  0  0  0  0  0  0  0  0  0
   11.1290   -4.8502   19.8052 C   0  0  0  0  0  0  0  0  0  0  0  0
   12.4329   -4.2159   24.4224 C   0  0  0  0  0  0  0  0  0  0  0  0
    3.4740   -9.0387   16.5022 C   0  0  0  0  0  0  0  0  0  0  0  0
    6.8384   -7.9290   17.5282 N   0  0  0  0  0  0  0  0  0  0  0  0
    9.4126   -5.9853   18.4899 C   0  0  0  0  0  0  0  0  0  0  0  0
    4.2064  -10.3242   18.3302 C   0  0  0  0  0  0  0  0  0  0  0  0
    9.6599   -4.1551   16.4796 N   0  0  0  0  0  0  0  0  0  0  0  0
    7.0644   -6.4612   15.7375 N   0  0  0  0  0  0  0  0  0  0  0  0
    5.3549   -9.6322   18.3190 C   0  0  0  0  0  0  0  0  0  0  0  0
   10.3704   -4.9638   18.6510 C   0  0  0  0  0  0  0  0  0  0  0  0
    5.5935   -8.6419   17.4234 C   0  0  0  0  0  0  0  0  0  0  0  0
   13.0726   -4.6648   23.3394 O   0  0  0  0  0  0  0  0  0  0  0  0
    8.5955   -6.0705   17.3996 C   0  0  0  0  0  0  0  0  0  0  0  0
    4.6223   -8.3832   16.5030 C   0  0  0  0  0  0  0  0  0  0  0  0
   12.4690   -5.2624   19.9024 C   0  0  0  0  0  0  0  0  0  0  0  0
    3.2548   -9.9919   17.4189 C   0  0  0  0  0  0  0  0  0  0  0  0
   12.4767   -4.7393   22.1790 C   0  0  0  0  0  0  0  0  0  0  0  0
    7.8593   -5.3772   15.3569 N   0  0  0  0  0  0  0  0  0  0  0  0
    7.4412   -6.9038   16.9283 C   0  0  0  0  0  0  0  0  0  0  0  0
  1 21  4  0
  1 23  4  0
  2  5  1  0
  2 13  4  0
  2 16  4  0
  3  6  4  0
  3  7  4  0
  4 13  4  0
  4 19  4  0
  4 24  4  0
  6 23  4  0
  7 16  1  0
  7 21  4  0
  8 18  1  0
  9 20  4  0
  9 22  4  0
 10 17  1  0
 10 25  1  0
 11 16  4  0
 11 19  4  0
 12 15  4  0
 12 22  4  0
 14 24  4  0
 14 25  4  0
 15 17  4  0
 17 20  4  0
 18 23  1  0
 19 25  4  0
M  END
$$$$

 Created by Python create_sdf_string function

 25 28  0  0  0  0  0  0  0  0999 V2000
   13.1533   -5.2399   21.0682 C   0  0  0  0  0  0  0  0  0  0  0  0
   10.4729   -4.0295   17.6135 C   0  0  0  0  0  0  0  0  0  0  0  0
   10.4789   -4.3641   20.9564 C   0  0  0  0  0  0  0  0  0  0  0  0
    8.7421   -5.1412   16.3650 C   0  0  0  0  0  0  0  0  0  0  0  0
   11.4353   -2.9204   17.8044 C   0  0  0  0  0  0  0  0  0  0  0  0
   11.1529   -4.3028   22.1277 C   0  0  0  0  0  0  0  0  0  0  0  0
   11.1290   -4.8502   19.8052 C   0  0  0  0  0  0  0  0  0  0  0  0
   12.4329   -4.2159   24.4224 C   0  0  0  0  0  0  0  0  0  0  0  0
    3.4740   -9.0387   16.5022 C   0  0  0  0  0  0  0  0  0  0  0  0
    6.8384   -7.9290   17.5282 N   0  0  0  0  0  0  0  0  0  0  0  0
    9.4126   -5.9853   18.4899 C   0  0  0  0  0  0  0  0  0  0  0  0
    4.2064  -10.3242   18.3302 C   0  0  0  0  0  0  0  0  0  0  0  0
    9.6599   -4.1551   16.4796 N   0  0  0  0  0  0  0  0  0  0  0  0
    7.0644   -6.4612   15.7375 N   0  0  0  0  0  0  0  0  0  0  0  0
    5.3549   -9.6322   18.3190 C   0  0  0  0  0  0  0  0  0  0  0  0
   10.3704   -4.9638   18.6510 C   0  0  0  0  0  0  0  0  0  0  0  0
    5.5935   -8.6419   17.4234 C   0  0  0  0  0  0  0  0  0  0  0  0
   13.0726   -4.6648   23.3394 O   0  0  0  0  0  0  0  0  0  0  0  0
    8.5955   -6.0705   17.3996 C   0  0  0  0  0  0  0  0  0  0  0  0
    4.6223   -8.3832   16.5030 C   0  0  0  0  0  0  0  0  0  0  0  0
   12.4690   -5.2624   19.9024 C   0  0  0  0  0  0  0  0  0  0  0  0
    3.2548   -9.9919   17.4189 C   0  0  0  0  0  0  0  0  0  0  0  0
   12.4767   -4.7393   22.1790 C   0  0  0  0  0  0  0  0  0  0  0  0
    7.8593   -5.3772   15.3569 N   0  0  0  0  0  0  0  0  0  0  0  0
    7.4412   -6.9038   16.9283 C   0  0  0  0  0  0  0  0  0  0  0  0
  1 21  4  0
  1 23  4  0
  2  5  1  0
  2 13  4  0
  2 16  4  0
  3  6  4  0
  3  7  4  0
  4 13  4  0
  4 19  4  0
  4 24  4  0
  6 23  4  0
  7 16  1  0
  7 21  4  0
  8 18  1  0
  9 20  4  0
  9 22  4  0
 10 17  1  0
 10 25  1  0
 11 16  4  0
 11 19  4  0
 12 15  4  0
 12 22  4  0
 14 24  4  0
 14 25  4  0
 15 17  4  0
 17 20  4  0
 18 23  1  0
 19 25  4  0
M  END
$$$$

 Created by Python create_sdf_string function

 25 28  0  0  0  0  0  0  0  0999 V2000
   13.1533   -5.2399   21.0682 C   0  0  0  0  0  0  0  0  0  0  0  0
   10.4729   -4.0295   17.6135 C   0  0  0  0  0  0  0  0  0  0  0  0
   10.4789   -4.3641   20.9564 C   0  0  0  0  0  0  0  0  0  0  0  0
    8.7421   -5.1412   16.3650 C   0  0  0  0  0  0  0  0  0  0  0  0
   11.4353   -2.9204   17.8044 C   0  0  0  0  0  0  0  0  0  0  0  0
   11.1529   -4.3028   22.1277 C   0  0  0  0  0  0  0  0  0  0  0  0
   11.1290   -4.8502   19.8052 C   0  0  0  0  0  0  0  0  0  0  0  0
   12.4329   -4.2159   24.4224 C   0  0  0  0  0  0  0  0  0  0  0  0
    3.4740   -9.0387   16.5022 C   0  0  0  0  0  0  0  0  0  0  0  0
    6.8384   -7.9290   17.5282 N   0  0  0  0  0  0  0  0  0  0  0  0
    9.4126   -5.9853   18.4899 C   0  0  0  0  0  0  0  0  0  0  0  0
    4.2064  -10.3242   18.3302 C   0  0  0  0  0  0  0  0  0  0  0  0
    9.6599   -4.1551   16.4796 N   0  0  0  0  0  0  0  0  0  0  0  0
    7.0644   -6.4612   15.7375 N   0  0  0  0  0  0  0  0  0  0  0  0
    5.3549   -9.6322   18.3190 C   0  0  0  0  0  0  0  0  0  0  0  0
   10.3704   -4.9638   18.6510 C   0  0  0  0  0  0  0  0  0  0  0  0
    5.5935   -8.6419   17.4234 C   0  0  0  0  0  0  0  0  0  0  0  0
   13.0726   -4.6648   23.3394 O   0  0  0  0  0  0  0  0  0  0  0  0
    8.5955   -6.0705   17.3996 C   0  0  0  0  0  0  0  0  0  0  0  0
    4.6223   -8.3832   16.5030 C   0  0  0  0  0  0  0  0  0  0  0  0
   12.4690   -5.2624   19.9024 C   0  0  0  0  0  0  0  0  0  0  0  0
    3.2548   -9.9919   17.4189 C   0  0  0  0  0  0  0  0  0  0  0  0
   12.4767   -4.7393   22.1790 C   0  0  0  0  0  0  0  0  0  0  0  0
    7.8593   -5.3772   15.3569 N   0  0  0  0  0  0  0  0  0  0  0  0
    7.4412   -6.9038   16.9283 C   0  0  0  0  0  0  0  0  0  0  0  0
  1 21  4  0
  1 23  4  0
  2  5  1  0
  2 13  4  0
  2 16  4  0
  3  6  4  0
  3  7  4  0
  4 13  4  0
  4 19  4  0
  4 24  4  0
  6 23  4  0
  7 16  1  0
  7 21  4  0
  8 18  1  0
  9 20  4  0
  9 22  4  0
 10 17  1  0
 10 25  1  0
 11 16  4  0
 11 19  4  0
 12 15  4  0
 12 22  4  0
 14 24  4  0
 14 25  4  0
 15 17  4  0
 17 20  4  0
 18 23  1  0
 19 25  4  0
M  END
$$$$

 Created by Python create_sdf_string function

 25 28  0  0  0  0  0  0  0  0999 V2000
   13.1533   -5.2399   21.0682 C   0  0  0  0  0  0  0  0  0  0  0  0
   10.4729   -4.0295   17.6135 C   0  0  0  0  0  0  0  0  0  0  0  0
   10.4789   -4.3641   20.9564 C   0  0  0  0  0  0  0  0  0  0  0  0
    8.7421   -5.1412   16.3650 C   0  0  0  0  0  0  0  0  0  0  0  0
   11.4353   -2.9204   17.8044 C   0  0  0  0  0  0  0  0  0  0  0  0
   11.1529   -4.3028   22.1277 C   0  0  0  0  0  0  0  0  0  0  0  0
   11.1290   -4.8502   19.8052 C   0  0  0  0  0  0  0  0  0  0  0  0
   12.4329   -4.2159   24.4224 C   0  0  0  0  0  0  0  0  0  0  0  0
    3.4740   -9.0387   16.5022 C   0  0  0  0  0  0  0  0  0  0  0  0
    6.8384   -7.9290   17.5282 N   0  0  0  0  0  0  0  0  0  0  0  0
    9.4126   -5.9853   18.4899 C   0  0  0  0  0  0  0  0  0  0  0  0
    4.2064  -10.3242   18.3302 C   0  0  0  0  0  0  0  0  0  0  0  0
    9.6599   -4.1551   16.4796 N   0  0  0  0  0  0  0  0  0  0  0  0
    7.0644   -6.4612   15.7375 N   0  0  0  0  0  0  0  0  0  0  0  0
    5.3549   -9.6322   18.3190 C   0  0  0  0  0  0  0  0  0  0  0  0
   10.3704   -4.9638   18.6510 C   0  0  0  0  0  0  0  0  0  0  0  0
    5.5935   -8.6419   17.4234 C   0  0  0  0  0  0  0  0  0  0  0  0
   13.0726   -4.6648   23.3394 O   0  0  0  0  0  0  0  0  0  0  0  0
    8.5955   -6.0705   17.3996 C   0  0  0  0  0  0  0  0  0  0  0  0
    4.6223   -8.3832   16.5030 C   0  0  0  0  0  0  0  0  0  0  0  0
   12.4690   -5.2624   19.9024 C   0  0  0  0  0  0  0  0  0  0  0  0
    3.2548   -9.9919   17.4189 C   0  0  0  0  0  0  0  0  0  0  0  0
   12.4767   -4.7393   22.1790 C   0  0  0  0  0  0  0  0  0  0  0  0
    7.8593   -5.3772   15.3569 N   0  0  0  0  0  0  0  0  0  0  0  0
    7.4412   -6.9038   16.9283 C   0  0  0  0  0  0  0  0  0  0  0  0
  1 21  4  0
  1 23  4  0
  2  5  1  0
  2 13  4  0
  2 16  4  0
  3  6  4  0
  3  7  4  0
  4 13  4  0
  4 19  4  0
  4 24  4  0
  6 23  4  0
  7 16  1  0
  7 21  4  0
  8 18  1  0
  9 20  4  0
  9 22  4  0
 10 17  1  0
 10 25  1  0
 11 16  4  0
 11 19  4  0
 12 15  4  0
 12 22  4  0
 14 24  4  0
 14 25  4  0
 15 17  4  0
 17 20  4  0
 18 23  1  0
 19 25  4  0
M  END
$$$$

 Created by Python create_sdf_string function

 25 28  0  0  0  0  0  0  0  0999 V2000
   13.1533   -5.2399   21.0682 C   0  0  0  0  0  0  0  0  0  0  0  0
   10.4729   -4.0295   17.6135 C   0  0  0  0  0  0  0  0  0  0  0  0
   10.4789   -4.3641   20.9564 C   0  0  0  0  0  0  0  0  0  0  0  0
    8.7421   -5.1412   16.3650 C   0  0  0  0  0  0  0  0  0  0  0  0
   11.4353   -2.9204   17.8044 C   0  0  0  0  0  0  0  0  0  0  0  0
   11.1529   -4.3028   22.1277 C   0  0  0  0  0  0  0  0  0  0  0  0
   11.1290   -4.8502   19.8052 C   0  0  0  0  0  0  0  0  0  0  0  0
   12.4329   -4.2159   24.4224 C   0  0  0  0  0  0  0  0  0  0  0  0
    3.4740   -9.0387   16.5022 C   0  0  0  0  0  0  0  0  0  0  0  0
    6.8384   -7.9290   17.5282 N   0  0  0  0  0  0  0  0  0  0  0  0
    9.4126   -5.9853   18.4899 C   0  0  0  0  0  0  0  0  0  0  0  0
    4.2064  -10.3242   18.3302 C   0  0  0  0  0  0  0  0  0  0  0  0
    9.6599   -4.1551   16.4796 N   0  0  0  0  0  0  0  0  0  0  0  0
    7.0644   -6.4612   15.7375 N   0  0  0  0  0  0  0  0  0  0  0  0
    5.3549   -9.6322   18.3190 C   0  0  0  0  0  0  0  0  0  0  0  0
   10.3704   -4.9638   18.6510 C   0  0  0  0  0  0  0  0  0  0  0  0
    5.5935   -8.6419   17.4234 C   0  0  0  0  0  0  0  0  0  0  0  0
   13.0726   -4.6648   23.3394 O   0  0  0  0  0  0  0  0  0  0  0  0
    8.5955   -6.0705   17.3996 C   0  0  0  0  0  0  0  0  0  0  0  0
    4.6223   -8.3832   16.5030 C   0  0  0  0  0  0  0  0  0  0  0  0
   12.4690   -5.2624   19.9024 C   0  0  0  0  0  0  0  0  0  0  0  0
    3.2548   -9.9919   17.4189 C   0  0  0  0  0  0  0  0  0  0  0  0
   12.4767   -4.7393   22.1790 C   0  0  0  0  0  0  0  0  0  0  0  0
    7.8593   -5.3772   15.3569 N   0  0  0  0  0  0  0  0  0  0  0  0
    7.4412   -6.9038   16.9283 C   0  0  0  0  0  0  0  0  0  0  0  0
  1 21  4  0
  1 23  4  0
  2  5  1  0
  2 13  4  0
  2 16  4  0
  3  6  4  0
  3  7  4  0
  4 13  4  0
  4 19  4  0
  4 24  4  0
  6 23  4  0
  7 16  1  0
  7 21  4  0
  8 18  1  0
  9 20  4  0
  9 22  4  0
 10 17  1  0
 10 25  1  0
 11 16  4  0
 11 19  4  0
 12 15  4  0
 12 22  4  0
 14 24  4  0
 14 25  4  0
 15 17  4  0
 17 20  4  0
 18 23  1  0
 19 25  4  0
M  END
$$$$

 Created by Python create_sdf_string function

 25 28  0  0  0  0  0  0  0  0999 V2000
   13.1533   -5.2399   21.0682 C   0  0  0  0  0  0  0  0  0  0  0  0
   10.4729   -4.0295   17.6135 C   0  0  0  0  0  0  0  0  0  0  0  0
   10.4789   -4.3641   20.9564 C   0  0  0  0  0  0  0  0  0  0  0  0
    8.7421   -5.1412   16.3650 C   0  0  0  0  0  0  0  0  0  0  0  0
   11.4353   -2.9204   17.8044 C   0  0  0  0  0  0  0  0  0  0  0  0
   11.1529   -4.3028   22.1277 C   0  0  0  0  0  0  0  0  0  0  0  0
   11.1290   -4.8502   19.8052 C   0  0  0  0  0  0  0  0  0  0  0  0
   12.4329   -4.2159   24.4224 C   0  0  0  0  0  0  0  0  0  0  0  0
    3.4740   -9.0387   16.5022 C   0  0  0  0  0  0  0  0  0  0  0  0
    6.8384   -7.9290   17.5282 N   0  0  0  0  0  0  0  0  0  0  0  0
    9.4126   -5.9853   18.4899 C   0  0  0  0  0  0  0  0  0  0  0  0
    4.2064  -10.3242   18.3302 C   0  0  0  0  0  0  0  0  0  0  0  0
    9.6599   -4.1551   16.4796 N   0  0  0  0  0  0  0  0  0  0  0  0
    7.0644   -6.4612   15.7375 N   0  0  0  0  0  0  0  0  0  0  0  0
    5.3549   -9.6322   18.3190 C   0  0  0  0  0  0  0  0  0  0  0  0
   10.3704   -4.9638   18.6510 C   0  0  0  0  0  0  0  0  0  0  0  0
    5.5935   -8.6419   17.4234 C   0  0  0  0  0  0  0  0  0  0  0  0
   13.0726   -4.6648   23.3394 O   0  0  0  0  0  0  0  0  0  0  0  0
    8.5955   -6.0705   17.3996 C   0  0  0  0  0  0  0  0  0  0  0  0
    4.6223   -8.3832   16.5030 C   0  0  0  0  0  0  0  0  0  0  0  0
   12.4690   -5.2624   19.9024 C   0  0  0  0  0  0  0  0  0  0  0  0
    3.2548   -9.9919   17.4189 C   0  0  0  0  0  0  0  0  0  0  0  0
   12.4767   -4.7393   22.1790 C   0  0  0  0  0  0  0  0  0  0  0  0
    7.8593   -5.3772   15.3569 N   0  0  0  0  0  0  0  0  0  0  0  0
    7.4412   -6.9038   16.9283 C   0  0  0  0  0  0  0  0  0  0  0  0
  1 21  4  0
  1 23  4  0
  2  5  1  0
  2 13  4  0
  2 16  4  0
  3  6  4  0
  3  7  4  0
  4 13  4  0
  4 19  4  0
  4 24  4  0
  6 23  4  0
  7 16  1  0
  7 21  4  0
  8 18  1  0
  9 20  4  0
  9 22  4  0
 10 17  1  0
 10 25  1  0
 11 16  4  0
 11 19  4  0
 12 15  4  0
 12 22  4  0
 14 24  4  0
 14 25  4  0
 15 17  4  0
 17 20  4  0
 18 23  1  0
 19 25  4  0
M  END
$$$$

 Created by Python create_sdf_string function

 25 28  0  0  0  0  0  0  0  0999 V2000
   13.1533   -5.2399   21.0682 C   0  0  0  0  0  0  0  0  0  0  0  0
   10.4729   -4.0295   17.6135 C   0  0  0  0  0  0  0  0  0  0  0  0
   10.4789   -4.3641   20.9564 C   0  0  0  0  0  0  0  0  0  0  0  0
    8.7421   -5.1412   16.3650 C   0  0  0  0  0  0  0  0  0  0  0  0
   11.4353   -2.9204   17.8044 C   0  0  0  0  0  0  0  0  0  0  0  0
   11.1529   -4.3028   22.1277 C   0  0  0  0  0  0  0  0  0  0  0  0
   11.1290   -4.8502   19.8052 C   0  0  0  0  0  0  0  0  0  0  0  0
   12.4329   -4.2159   24.4224 C   0  0  0  0  0  0  0  0  0  0  0  0
    3.4740   -9.0387   16.5022 C   0  0  0  0  0  0  0  0  0  0  0  0
    6.8384   -7.9290   17.5282 N   0  0  0  0  0  0  0  0  0  0  0  0
    9.4126   -5.9853   18.4899 C   0  0  0  0  0  0  0  0  0  0  0  0
    4.2064  -10.3242   18.3302 C   0  0  0  0  0  0  0  0  0  0  0  0
    9.6599   -4.1551   16.4796 N   0  0  0  0  0  0  0  0  0  0  0  0
    7.0644   -6.4612   15.7375 N   0  0  0  0  0  0  0  0  0  0  0  0
    5.3549   -9.6322   18.3190 C   0  0  0  0  0  0  0  0  0  0  0  0
   10.3704   -4.9638   18.6510 C   0  0  0  0  0  0  0  0  0  0  0  0
    5.5935   -8.6419   17.4234 C   0  0  0  0  0  0  0  0  0  0  0  0
   13.0726   -4.6648   23.3394 O   0  0  0  0  0  0  0  0  0  0  0  0
    8.5955   -6.0705   17.3996 C   0  0  0  0  0  0  0  0  0  0  0  0
    4.6223   -8.3832   16.5030 C   0  0  0  0  0  0  0  0  0  0  0  0
   12.4690   -5.2624   19.9024 C   0  0  0  0  0  0  0  0  0  0  0  0
    3.2548   -9.9919   17.4189 C   0  0  0  0  0  0  0  0  0  0  0  0
   12.4767   -4.7393   22.1790 C   0  0  0  0  0  0  0  0  0  0  0  0
    7.8593   -5.3772   15.3569 N   0  0  0  0  0  0  0  0  0  0  0  0
    7.4412   -6.9038   16.9283 C   0  0  0  0  0  0  0  0  0  0  0  0
  1 21  4  0
  1 23  4  0
  2  5  1  0
  2 13  4  0
  2 16  4  0
  3  6  4  0
  3  7  4  0
  4 13  4  0
  4 19  4  0
  4 24  4  0
  6 23  4  0
  7 16  1  0
  7 21  4  0
  8 18  1  0
  9 20  4  0
  9 22  4  0
 10 17  1  0
 10 25  1  0
 11 16  4  0
 11 19  4  0
 12 15  4  0
 12 22  4  0
 14 24  4  0
 14 25  4  0
 15 17  4  0
 17 20  4  0
 18 23  1  0
 19 25  4  0
M  END
$$$$

 Created by Python create_sdf_string function

 25 28  0  0  0  0  0  0  0  0999 V2000
   13.1533   -5.2399   21.0682 C   0  0  0  0  0  0  0  0  0  0  0  0
   10.4729   -4.0295   17.6135 C   0  0  0  0  0  0  0  0  0  0  0  0
   10.4789   -4.3641   20.9564 C   0  0  0  0  0  0  0  0  0  0  0  0
    8.7421   -5.1412   16.3650 C   0  0  0  0  0  0  0  0  0  0  0  0
   11.4353   -2.9204   17.8044 C   0  0  0  0  0  0  0  0  0  0  0  0
   11.1529   -4.3028   22.1277 C   0  0  0  0  0  0  0  0  0  0  0  0
   11.1290   -4.8502   19.8052 C   0  0  0  0  0  0  0  0  0  0  0  0
   12.4329   -4.2159   24.4224 C   0  0  0  0  0  0  0  0  0  0  0  0
    3.4740   -9.0387   16.5022 C   0  0  0  0  0  0  0  0  0  0  0  0
    6.8384   -7.9290   17.5282 N   0  0  0  0  0  0  0  0  0  0  0  0
    9.4126   -5.9853   18.4899 C   0  0  0  0  0  0  0  0  0  0  0  0
    4.2064  -10.3242   18.3302 C   0  0  0  0  0  0  0  0  0  0  0  0
    9.6599   -4.1551   16.4796 N   0  0  0  0  0  0  0  0  0  0  0  0
    7.0644   -6.4612   15.7375 N   0  0  0  0  0  0  0  0  0  0  0  0
    5.3549   -9.6322   18.3190 C   0  0  0  0  0  0  0  0  0  0  0  0
   10.3704   -4.9638   18.6510 C   0  0  0  0  0  0  0  0  0  0  0  0
    5.5935   -8.6419   17.4234 C   0  0  0  0  0  0  0  0  0  0  0  0
   13.0726   -4.6648   23.3394 O   0  0  0  0  0  0  0  0  0  0  0  0
    8.5955   -6.0705   17.3996 C   0  0  0  0  0  0  0  0  0  0  0  0
    4.6223   -8.3832   16.5030 C   0  0  0  0  0  0  0  0  0  0  0  0
   12.4690   -5.2624   19.9024 C   0  0  0  0  0  0  0  0  0  0  0  0
    3.2548   -9.9919   17.4189 C   0  0  0  0  0  0  0  0  0  0  0  0
   12.4767   -4.7393   22.1790 C   0  0  0  0  0  0  0  0  0  0  0  0
    7.8593   -5.3772   15.3569 N   0  0  0  0  0  0  0  0  0  0  0  0
    7.4412   -6.9038   16.9283 C   0  0  0  0  0  0  0  0  0  0  0  0
  1 21  4  0
  1 23  4  0
  2  5  1  0
  2 13  4  0
  2 16  4  0
  3  6  4  0
  3  7  4  0
  4 13  4  0
  4 19  4  0
  4 24  4  0
  6 23  4  0
  7 16  1  0
  7 21  4  0
  8 18  1  0
  9 20  4  0
  9 22  4  0
 10 17  1  0
 10 25  1  0
 11 16  4  0
 11 19  4  0
 12 15  4  0
 12 22  4  0
 14 24  4  0
 14 25  4  0
 15 17  4  0
 17 20  4  0
 18 23  1  0
 19 25  4  0
M  END
$$$$

 Created by Python create_sdf_string function

 25 28  0  0  0  0  0  0  0  0999 V2000
   13.1533   -5.2399   21.0682 C   0  0  0  0  0  0  0  0  0  0  0  0
   10.4729   -4.0295   17.6135 C   0  0  0  0  0  0  0  0  0  0  0  0
   10.4789   -4.3641   20.9564 C   0  0  0  0  0  0  0  0  0  0  0  0
    8.7421   -5.1412   16.3650 C   0  0  0  0  0  0  0  0  0  0  0  0
   11.4353   -2.9204   17.8044 C   0  0  0  0  0  0  0  0  0  0  0  0
   11.1529   -4.3028   22.1277 C   0  0  0  0  0  0  0  0  0  0  0  0
   11.1290   -4.8502   19.8052 C   0  0  0  0  0  0  0  0  0  0  0  0
   12.4329   -4.2159   24.4224 C   0  0  0  0  0  0  0  0  0  0  0  0
    3.4740   -9.0387   16.5022 C   0  0  0  0  0  0  0  0  0  0  0  0
    6.8384   -7.9290   17.5282 N   0  0  0  0  0  0  0  0  0  0  0  0
    9.4126   -5.9853   18.4899 C   0  0  0  0  0  0  0  0  0  0  0  0
    4.2064  -10.3242   18.3302 C   0  0  0  0  0  0  0  0  0  0  0  0
    9.6599   -4.1551   16.4796 N   0  0  0  0  0  0  0  0  0  0  0  0
    7.0644   -6.4612   15.7375 N   0  0  0  0  0  0  0  0  0  0  0  0
    5.3549   -9.6322   18.3190 C   0  0  0  0  0  0  0  0  0  0  0  0
   10.3704   -4.9638   18.6510 C   0  0  0  0  0  0  0  0  0  0  0  0
    5.5935   -8.6419   17.4234 C   0  0  0  0  0  0  0  0  0  0  0  0
   13.0726   -4.6648   23.3394 O   0  0  0  0  0  0  0  0  0  0  0  0
    8.5955   -6.0705   17.3996 C   0  0  0  0  0  0  0  0  0  0  0  0
    4.6223   -8.3832   16.5030 C   0  0  0  0  0  0  0  0  0  0  0  0
   12.4690   -5.2624   19.9024 C   0  0  0  0  0  0  0  0  0  0  0  0
    3.2548   -9.9919   17.4189 C   0  0  0  0  0  0  0  0  0  0  0  0
   12.4767   -4.7393   22.1790 C   0  0  0  0  0  0  0  0  0  0  0  0
    7.8593   -5.3772   15.3569 N   0  0  0  0  0  0  0  0  0  0  0  0
    7.4412   -6.9038   16.9283 C   0  0  0  0  0  0  0  0  0  0  0  0
  1 21  4  0
  1 23  4  0
  2  5  1  0
  2 13  4  0
  2 16  4  0
  3  6  4  0
  3  7  4  0
  4 13  4  0
  4 19  4  0
  4 24  4  0
  6 23  4  0
  7 16  1  0
  7 21  4  0
  8 18  1  0
  9 20  4  0
  9 22  4  0
 10 17  1  0
 10 25  1  0
 11 16  4  0
 11 19  4  0
 12 15  4  0
 12 22  4  0
 14 24  4  0
 14 25  4  0
 15 17  4  0
 17 20  4  0
 18 23  1  0
 19 25  4  0
M  END
$$$$

 Created by Python create_sdf_string function

 25 28  0  0  0  0  0  0  0  0999 V2000
   13.1533   -5.2399   21.0682 C   0  0  0  0  0  0  0  0  0  0  0  0
   10.4729   -4.0295   17.6135 C   0  0  0  0  0  0  0  0  0  0  0  0
   10.4789   -4.3641   20.9564 C   0  0  0  0  0  0  0  0  0  0  0  0
    8.7421   -5.1412   16.3650 C   0  0  0  0  0  0  0  0  0  0  0  0
   11.4353   -2.9204   17.8044 C   0  0  0  0  0  0  0  0  0  0  0  0
   11.1529   -4.3028   22.1277 C   0  0  0  0  0  0  0  0  0  0  0  0
   11.1290   -4.8502   19.8052 C   0  0  0  0  0  0  0  0  0  0  0  0
   12.4329   -4.2159   24.4224 C   0  0  0  0  0  0  0  0  0  0  0  0
    3.4740   -9.0387   16.5022 C   0  0  0  0  0  0  0  0  0  0  0  0
    6.8384   -7.9290   17.5282 N   0  0  0  0  0  0  0  0  0  0  0  0
    9.4126   -5.9853   18.4899 C   0  0  0  0  0  0  0  0  0  0  0  0
    4.2064  -10.3242   18.3302 C   0  0  0  0  0  0  0  0  0  0  0  0
    9.6599   -4.1551   16.4796 N   0  0  0  0  0  0  0  0  0  0  0  0
    7.0644   -6.4612   15.7375 N   0  0  0  0  0  0  0  0  0  0  0  0
    5.3549   -9.6322   18.3190 C   0  0  0  0  0  0  0  0  0  0  0  0
   10.3704   -4.9638   18.6510 C   0  0  0  0  0  0  0  0  0  0  0  0
    5.5935   -8.6419   17.4234 C   0  0  0  0  0  0  0  0  0  0  0  0
   13.0726   -4.6648   23.3394 O   0  0  0  0  0  0  0  0  0  0  0  0
    8.5955   -6.0705   17.3996 C   0  0  0  0  0  0  0  0  0  0  0  0
    4.6223   -8.3832   16.5030 C   0  0  0  0  0  0  0  0  0  0  0  0
   12.4690   -5.2624   19.9024 C   0  0  0  0  0  0  0  0  0  0  0  0
    3.2548   -9.9919   17.4189 C   0  0  0  0  0  0  0  0  0  0  0  0
   12.4767   -4.7393   22.1790 C   0  0  0  0  0  0  0  0  0  0  0  0
    7.8593   -5.3772   15.3569 N   0  0  0  0  0  0  0  0  0  0  0  0
    7.4412   -6.9038   16.9283 C   0  0  0  0  0  0  0  0  0  0  0  0
  1 21  4  0
  1 23  4  0
  2  5  1  0
  2 13  4  0
  2 16  4  0
  3  6  4  0
  3  7  4  0
  4 13  4  0
  4 19  4  0
  4 24  4  0
  6 23  4  0
  7 16  1  0
  7 21  4  0
  8 18  1  0
  9 20  4  0
  9 22  4  0
 10 17  1  0
 10 25  1  0
 11 16  4  0
 11 19  4  0
 12 15  4  0
 12 22  4  0
 14 24  4  0
 14 25  4  0
 15 17  4  0
 17 20  4  0
 18 23  1  0
 19 25  4  0
M  END
$$$$

 Created by Python create_sdf_string function

 25 28  0  0  0  0  0  0  0  0999 V2000
   13.1533   -5.2399   21.0682 C   0  0  0  0  0  0  0  0  0  0  0  0
   10.4729   -4.0295   17.6135 C   0  0  0  0  0  0  0  0  0  0  0  0
   10.4789   -4.3641   20.9564 C   0  0  0  0  0  0  0  0  0  0  0  0
    8.7421   -5.1412   16.3650 C   0  0  0  0  0  0  0  0  0  0  0  0
   11.4353   -2.9204   17.8044 C   0  0  0  0  0  0  0  0  0  0  0  0
   11.1529   -4.3028   22.1277 C   0  0  0  0  0  0  0  0  0  0  0  0
   11.1290   -4.8502   19.8052 C   0  0  0  0  0  0  0  0  0  0  0  0
   12.4329   -4.2159   24.4224 C   0  0  0  0  0  0  0  0  0  0  0  0
    3.4740   -9.0387   16.5022 C   0  0  0  0  0  0  0  0  0  0  0  0
    6.8384   -7.9290   17.5282 N   0  0  0  0  0  0  0  0  0  0  0  0
    9.4126   -5.9853   18.4899 C   0  0  0  0  0  0  0  0  0  0  0  0
    4.2064  -10.3242   18.3302 C   0  0  0  0  0  0  0  0  0  0  0  0
    9.6599   -4.1551   16.4796 N   0  0  0  0  0  0  0  0  0  0  0  0
    7.0644   -6.4612   15.7375 N   0  0  0  0  0  0  0  0  0  0  0  0
    5.3549   -9.6322   18.3190 C   0  0  0  0  0  0  0  0  0  0  0  0
   10.3704   -4.9638   18.6510 C   0  0  0  0  0  0  0  0  0  0  0  0
    5.5935   -8.6419   17.4234 C   0  0  0  0  0  0  0  0  0  0  0  0
   13.0726   -4.6648   23.3394 O   0  0  0  0  0  0  0  0  0  0  0  0
    8.5955   -6.0705   17.3996 C   0  0  0  0  0  0  0  0  0  0  0  0
    4.6223   -8.3832   16.5030 C   0  0  0  0  0  0  0  0  0  0  0  0
   12.4690   -5.2624   19.9024 C   0  0  0  0  0  0  0  0  0  0  0  0
    3.2548   -9.9919   17.4189 C   0  0  0  0  0  0  0  0  0  0  0  0
   12.4767   -4.7393   22.1790 C   0  0  0  0  0  0  0  0  0  0  0  0
    7.8593   -5.3772   15.3569 N   0  0  0  0  0  0  0  0  0  0  0  0
    7.4412   -6.9038   16.9283 C   0  0  0  0  0  0  0  0  0  0  0  0
  1 21  4  0
  1 23  4  0
  2  5  1  0
  2 13  4  0
  2 16  4  0
  3  6  4  0
  3  7  4  0
  4 13  4  0
  4 19  4  0
  4 24  4  0
  6 23  4  0
  7 16  1  0
  7 21  4  0
  8 18  1  0
  9 20  4  0
  9 22  4  0
 10 17  1  0
 10 25  1  0
 11 16  4  0
 11 19  4  0
 12 15  4  0
 12 22  4  0
 14 24  4  0
 14 25  4  0
 15 17  4  0
 17 20  4  0
 18 23  1  0
 19 25  4  0
M  END
$$$$

 Created by Python create_sdf_string function

 25 28  0  0  0  0  0  0  0  0999 V2000
   13.1533   -5.2399   21.0682 C   0  0  0  0  0  0  0  0  0  0  0  0
   10.4729   -4.0295   17.6135 C   0  0  0  0  0  0  0  0  0  0  0  0
   10.4789   -4.3641   20.9564 C   0  0  0  0  0  0  0  0  0  0  0  0
    8.7421   -5.1412   16.3650 C   0  0  0  0  0  0  0  0  0  0  0  0
   11.4353   -2.9204   17.8044 C   0  0  0  0  0  0  0  0  0  0  0  0
   11.1529   -4.3028   22.1277 C   0  0  0  0  0  0  0  0  0  0  0  0
   11.1290   -4.8502   19.8052 C   0  0  0  0  0  0  0  0  0  0  0  0
   12.4329   -4.2159   24.4224 C   0  0  0  0  0  0  0  0  0  0  0  0
    3.4740   -9.0387   16.5022 C   0  0  0  0  0  0  0  0  0  0  0  0
    6.8384   -7.9290   17.5282 N   0  0  0  0  0  0  0  0  0  0  0  0
    9.4126   -5.9853   18.4899 C   0  0  0  0  0  0  0  0  0  0  0  0
    4.2064  -10.3242   18.3302 C   0  0  0  0  0  0  0  0  0  0  0  0
    9.6599   -4.1551   16.4796 N   0  0  0  0  0  0  0  0  0  0  0  0
    7.0644   -6.4612   15.7375 N   0  0  0  0  0  0  0  0  0  0  0  0
    5.3549   -9.6322   18.3190 C   0  0  0  0  0  0  0  0  0  0  0  0
   10.3704   -4.9638   18.6510 C   0  0  0  0  0  0  0  0  0  0  0  0
    5.5935   -8.6419   17.4234 C   0  0  0  0  0  0  0  0  0  0  0  0
   13.0726   -4.6648   23.3394 O   0  0  0  0  0  0  0  0  0  0  0  0
    8.5955   -6.0705   17.3996 C   0  0  0  0  0  0  0  0  0  0  0  0
    4.6223   -8.3832   16.5030 C   0  0  0  0  0  0  0  0  0  0  0  0
   12.4690   -5.2624   19.9024 C   0  0  0  0  0  0  0  0  0  0  0  0
    3.2548   -9.9919   17.4189 C   0  0  0  0  0  0  0  0  0  0  0  0
   12.4767   -4.7393   22.1790 C   0  0  0  0  0  0  0  0  0  0  0  0
    7.8593   -5.3772   15.3569 N   0  0  0  0  0  0  0  0  0  0  0  0
    7.4412   -6.9038   16.9283 C   0  0  0  0  0  0  0  0  0  0  0  0
  1 21  4  0
  1 23  4  0
  2  5  1  0
  2 13  4  0
  2 16  4  0
  3  6  4  0
  3  7  4  0
  4 13  4  0
  4 19  4  0
  4 24  4  0
  6 23  4  0
  7 16  1  0
  7 21  4  0
  8 18  1  0
  9 20  4  0
  9 22  4  0
 10 17  1  0
 10 25  1  0
 11 16  4  0
 11 19  4  0
 12 15  4  0
 12 22  4  0
 14 24  4  0
 14 25  4  0
 15 17  4  0
 17 20  4  0
 18 23  1  0
 19 25  4  0
M  END
$$$$

 Created by Python create_sdf_string function

 25 28  0  0  0  0  0  0  0  0999 V2000
   13.1533   -5.2399   21.0682 C   0  0  0  0  0  0  0  0  0  0  0  0
   10.4729   -4.0295   17.6135 C   0  0  0  0  0  0  0  0  0  0  0  0
   10.4789   -4.3641   20.9564 C   0  0  0  0  0  0  0  0  0  0  0  0
    8.7421   -5.1412   16.3650 C   0  0  0  0  0  0  0  0  0  0  0  0
   11.4353   -2.9204   17.8044 C   0  0  0  0  0  0  0  0  0  0  0  0
   11.1529   -4.3028   22.1277 C   0  0  0  0  0  0  0  0  0  0  0  0
   11.1290   -4.8502   19.8052 C   0  0  0  0  0  0  0  0  0  0  0  0
   12.4329   -4.2159   24.4224 C   0  0  0  0  0  0  0  0  0  0  0  0
    3.4740   -9.0387   16.5022 C   0  0  0  0  0  0  0  0  0  0  0  0
    6.8384   -7.9290   17.5282 N   0  0  0  0  0  0  0  0  0  0  0  0
    9.4126   -5.9853   18.4899 C   0  0  0  0  0  0  0  0  0  0  0  0
    4.2064  -10.3242   18.3302 C   0  0  0  0  0  0  0  0  0  0  0  0
    9.6599   -4.1551   16.4796 N   0  0  0  0  0  0  0  0  0  0  0  0
    7.0644   -6.4612   15.7375 N   0  0  0  0  0  0  0  0  0  0  0  0
    5.3549   -9.6322   18.3190 C   0  0  0  0  0  0  0  0  0  0  0  0
   10.3704   -4.9638   18.6510 C   0  0  0  0  0  0  0  0  0  0  0  0
    5.5935   -8.6419   17.4234 C   0  0  0  0  0  0  0  0  0  0  0  0
   13.0726   -4.6648   23.3394 O   0  0  0  0  0  0  0  0  0  0  0  0
    8.5955   -6.0705   17.3996 C   0  0  0  0  0  0  0  0  0  0  0  0
    4.6223   -8.3832   16.5030 C   0  0  0  0  0  0  0  0  0  0  0  0
   12.4690   -5.2624   19.9024 C   0  0  0  0  0  0  0  0  0  0  0  0
    3.2548   -9.9919   17.4189 C   0  0  0  0  0  0  0  0  0  0  0  0
   12.4767   -4.7393   22.1790 C   0  0  0  0  0  0  0  0  0  0  0  0
    7.8593   -5.3772   15.3569 N   0  0  0  0  0  0  0  0  0  0  0  0
    7.4412   -6.9038   16.9283 C   0  0  0  0  0  0  0  0  0  0  0  0
  1 21  4  0
  1 23  4  0
  2  5  1  0
  2 13  4  0
  2 16  4  0
  3  6  4  0
  3  7  4  0
  4 13  4  0
  4 19  4  0
  4 24  4  0
  6 23  4  0
  7 16  1  0
  7 21  4  0
  8 18  1  0
  9 20  4  0
  9 22  4  0
 10 17  1  0
 10 25  1  0
 11 16  4  0
 11 19  4  0
 12 15  4  0
 12 22  4  0
 14 24  4  0
 14 25  4  0
 15 17  4  0
 17 20  4  0
 18 23  1  0
 19 25  4  0
M  END
$$$$

 Created by Python create_sdf_string function

 25 28  0  0  0  0  0  0  0  0999 V2000
   13.1533   -5.2399   21.0682 C   0  0  0  0  0  0  0  0  0  0  0  0
   10.4729   -4.0295   17.6135 C   0  0  0  0  0  0  0  0  0  0  0  0
   10.4789   -4.3641   20.9564 C   0  0  0  0  0  0  0  0  0  0  0  0
    8.7421   -5.1412   16.3650 C   0  0  0  0  0  0  0  0  0  0  0  0
   11.4353   -2.9204   17.8044 C   0  0  0  0  0  0  0  0  0  0  0  0
   11.1529   -4.3028   22.1277 C   0  0  0  0  0  0  0  0  0  0  0  0
   11.1290   -4.8502   19.8052 C   0  0  0  0  0  0  0  0  0  0  0  0
   12.4329   -4.2159   24.4224 C   0  0  0  0  0  0  0  0  0  0  0  0
    3.4740   -9.0387   16.5022 C   0  0  0  0  0  0  0  0  0  0  0  0
    6.8384   -7.9290   17.5282 N   0  0  0  0  0  0  0  0  0  0  0  0
    9.4126   -5.9853   18.4899 C   0  0  0  0  0  0  0  0  0  0  0  0
    4.2064  -10.3242   18.3302 C   0  0  0  0  0  0  0  0  0  0  0  0
    9.6599   -4.1551   16.4796 N   0  0  0  0  0  0  0  0  0  0  0  0
    7.0644   -6.4612   15.7375 N   0  0  0  0  0  0  0  0  0  0  0  0
    5.3549   -9.6322   18.3190 C   0  0  0  0  0  0  0  0  0  0  0  0
   10.3704   -4.9638   18.6510 C   0  0  0  0  0  0  0  0  0  0  0  0
    5.5935   -8.6419   17.4234 C   0  0  0  0  0  0  0  0  0  0  0  0
   13.0726   -4.6648   23.3394 O   0  0  0  0  0  0  0  0  0  0  0  0
    8.5955   -6.0705   17.3996 C   0  0  0  0  0  0  0  0  0  0  0  0
    4.6223   -8.3832   16.5030 C   0  0  0  0  0  0  0  0  0  0  0  0
   12.4690   -5.2624   19.9024 C   0  0  0  0  0  0  0  0  0  0  0  0
    3.2548   -9.9919   17.4189 C   0  0  0  0  0  0  0  0  0  0  0  0
   12.4767   -4.7393   22.1790 C   0  0  0  0  0  0  0  0  0  0  0  0
    7.8593   -5.3772   15.3569 N   0  0  0  0  0  0  0  0  0  0  0  0
    7.4412   -6.9038   16.9283 C   0  0  0  0  0  0  0  0  0  0  0  0
  1 21  4  0
  1 23  4  0
  2  5  1  0
  2 13  4  0
  2 16  4  0
  3  6  4  0
  3  7  4  0
  4 13  4  0
  4 19  4  0
  4 24  4  0
  6 23  4  0
  7 16  1  0
  7 21  4  0
  8 18  1  0
  9 20  4  0
  9 22  4  0
 10 17  1  0
 10 25  1  0
 11 16  4  0
 11 19  4  0
 12 15  4  0
 12 22  4  0
 14 24  4  0
 14 25  4  0
 15 17  4  0
 17 20  4  0
 18 23  1  0
 19 25  4  0
M  END
$$$$

 Created by Python create_sdf_string function

 25 28  0  0  0  0  0  0  0  0999 V2000
   13.1533   -5.2399   21.0682 C   0  0  0  0  0  0  0  0  0  0  0  0
   10.4729   -4.0295   17.6135 C   0  0  0  0  0  0  0  0  0  0  0  0
   10.4789   -4.3641   20.9564 C   0  0  0  0  0  0  0  0  0  0  0  0
    8.7421   -5.1412   16.3650 C   0  0  0  0  0  0  0  0  0  0  0  0
   11.4353   -2.9204   17.8044 C   0  0  0  0  0  0  0  0  0  0  0  0
   11.1529   -4.3028   22.1277 C   0  0  0  0  0  0  0  0  0  0  0  0
   11.1290   -4.8502   19.8052 C   0  0  0  0  0  0  0  0  0  0  0  0
   12.4329   -4.2159   24.4224 C   0  0  0  0  0  0  0  0  0  0  0  0
    3.4740   -9.0387   16.5022 C   0  0  0  0  0  0  0  0  0  0  0  0
    6.8384   -7.9290   17.5282 N   0  0  0  0  0  0  0  0  0  0  0  0
    9.4126   -5.9853   18.4899 C   0  0  0  0  0  0  0  0  0  0  0  0
    4.2064  -10.3242   18.3302 C   0  0  0  0  0  0  0  0  0  0  0  0
    9.6599   -4.1551   16.4796 N   0  0  0  0  0  0  0  0  0  0  0  0
    7.0644   -6.4612   15.7375 N   0  0  0  0  0  0  0  0  0  0  0  0
    5.3549   -9.6322   18.3190 C   0  0  0  0  0  0  0  0  0  0  0  0
   10.3704   -4.9638   18.6510 C   0  0  0  0  0  0  0  0  0  0  0  0
    5.5935   -8.6419   17.4234 C   0  0  0  0  0  0  0  0  0  0  0  0
   13.0726   -4.6648   23.3394 O   0  0  0  0  0  0  0  0  0  0  0  0
    8.5955   -6.0705   17.3996 C   0  0  0  0  0  0  0  0  0  0  0  0
    4.6223   -8.3832   16.5030 C   0  0  0  0  0  0  0  0  0  0  0  0
   12.4690   -5.2624   19.9024 C   0  0  0  0  0  0  0  0  0  0  0  0
    3.2548   -9.9919   17.4189 C   0  0  0  0  0  0  0  0  0  0  0  0
   12.4767   -4.7393   22.1790 C   0  0  0  0  0  0  0  0  0  0  0  0
    7.8593   -5.3772   15.3569 N   0  0  0  0  0  0  0  0  0  0  0  0
    7.4412   -6.9038   16.9283 C   0  0  0  0  0  0  0  0  0  0  0  0
  1 21  4  0
  1 23  4  0
  2  5  1  0
  2 13  4  0
  2 16  4  0
  3  6  4  0
  3  7  4  0
  4 13  4  0
  4 19  4  0
  4 24  4  0
  6 23  4  0
  7 16  1  0
  7 21  4  0
  8 18  1  0
  9 20  4  0
  9 22  4  0
 10 17  1  0
 10 25  1  0
 11 16  4  0
 11 19  4  0
 12 15  4  0
 12 22  4  0
 14 24  4  0
 14 25  4  0
 15 17  4  0
 17 20  4  0
 18 23  1  0
 19 25  4  0
M  END
$$$$

 Created by Python create_sdf_string function

 25 28  0  0  0  0  0  0  0  0999 V2000
   13.1533   -5.2399   21.0682 C   0  0  0  0  0  0  0  0  0  0  0  0
   10.4729   -4.0295   17.6135 C   0  0  0  0  0  0  0  0  0  0  0  0
   10.4789   -4.3641   20.9564 C   0  0  0  0  0  0  0  0  0  0  0  0
    8.7421   -5.1412   16.3650 C   0  0  0  0  0  0  0  0  0  0  0  0
   11.4353   -2.9204   17.8044 C   0  0  0  0  0  0  0  0  0  0  0  0
   11.1529   -4.3028   22.1277 C   0  0  0  0  0  0  0  0  0  0  0  0
   11.1290   -4.8502   19.8052 C   0  0  0  0  0  0  0  0  0  0  0  0
   12.4329   -4.2159   24.4224 C   0  0  0  0  0  0  0  0  0  0  0  0
    3.4740   -9.0387   16.5022 C   0  0  0  0  0  0  0  0  0  0  0  0
    6.8384   -7.9290   17.5282 N   0  0  0  0  0  0  0  0  0  0  0  0
    9.4126   -5.9853   18.4899 C   0  0  0  0  0  0  0  0  0  0  0  0
    4.2064  -10.3242   18.3302 C   0  0  0  0  0  0  0  0  0  0  0  0
    9.6599   -4.1551   16.4796 N   0  0  0  0  0  0  0  0  0  0  0  0
    7.0644   -6.4612   15.7375 N   0  0  0  0  0  0  0  0  0  0  0  0
    5.3549   -9.6322   18.3190 C   0  0  0  0  0  0  0  0  0  0  0  0
   10.3704   -4.9638   18.6510 C   0  0  0  0  0  0  0  0  0  0  0  0
    5.5935   -8.6419   17.4234 C   0  0  0  0  0  0  0  0  0  0  0  0
   13.0726   -4.6648   23.3394 O   0  0  0  0  0  0  0  0  0  0  0  0
    8.5955   -6.0705   17.3996 C   0  0  0  0  0  0  0  0  0  0  0  0
    4.6223   -8.3832   16.5030 C   0  0  0  0  0  0  0  0  0  0  0  0
   12.4690   -5.2624   19.9024 C   0  0  0  0  0  0  0  0  0  0  0  0
    3.2548   -9.9919   17.4189 C   0  0  0  0  0  0  0  0  0  0  0  0
   12.4767   -4.7393   22.1790 C   0  0  0  0  0  0  0  0  0  0  0  0
    7.8593   -5.3772   15.3569 N   0  0  0  0  0  0  0  0  0  0  0  0
    7.4412   -6.9038   16.9283 C   0  0  0  0  0  0  0  0  0  0  0  0
  1 21  4  0
  1 23  4  0
  2  5  1  0
  2 13  4  0
  2 16  4  0
  3  6  4  0
  3  7  4  0
  4 13  4  0
  4 19  4  0
  4 24  4  0
  6 23  4  0
  7 16  1  0
  7 21  4  0
  8 18  1  0
  9 20  4  0
  9 22  4  0
 10 17  1  0
 10 25  1  0
 11 16  4  0
 11 19  4  0
 12 15  4  0
 12 22  4  0
 14 24  4  0
 14 25  4  0
 15 17  4  0
 17 20  4  0
 18 23  1  0
 19 25  4  0
M  END
$$$$

 Created by Python create_sdf_string function

 25 28  0  0  0  0  0  0  0  0999 V2000
   13.1533   -5.2399   21.0682 C   0  0  0  0  0  0  0  0  0  0  0  0
   10.4729   -4.0295   17.6135 C   0  0  0  0  0  0  0  0  0  0  0  0
   10.4789   -4.3641   20.9564 C   0  0  0  0  0  0  0  0  0  0  0  0
    8.7421   -5.1412   16.3650 C   0  0  0  0  0  0  0  0  0  0  0  0
   11.4353   -2.9204   17.8044 C   0  0  0  0  0  0  0  0  0  0  0  0
   11.1529   -4.3028   22.1277 C   0  0  0  0  0  0  0  0  0  0  0  0
   11.1290   -4.8502   19.8052 C   0  0  0  0  0  0  0  0  0  0  0  0
   12.4329   -4.2159   24.4224 C   0  0  0  0  0  0  0  0  0  0  0  0
    3.4740   -9.0387   16.5022 C   0  0  0  0  0  0  0  0  0  0  0  0
    6.8384   -7.9290   17.5282 N   0  0  0  0  0  0  0  0  0  0  0  0
    9.4126   -5.9853   18.4899 C   0  0  0  0  0  0  0  0  0  0  0  0
    4.2064  -10.3242   18.3302 C   0  0  0  0  0  0  0  0  0  0  0  0
    9.6599   -4.1551   16.4796 N   0  0  0  0  0  0  0  0  0  0  0  0
    7.0644   -6.4612   15.7375 N   0  0  0  0  0  0  0  0  0  0  0  0
    5.3549   -9.6322   18.3190 C   0  0  0  0  0  0  0  0  0  0  0  0
   10.3704   -4.9638   18.6510 C   0  0  0  0  0  0  0  0  0  0  0  0
    5.5935   -8.6419   17.4234 C   0  0  0  0  0  0  0  0  0  0  0  0
   13.0726   -4.6648   23.3394 O   0  0  0  0  0  0  0  0  0  0  0  0
    8.5955   -6.0705   17.3996 C   0  0  0  0  0  0  0  0  0  0  0  0
    4.6223   -8.3832   16.5030 C   0  0  0  0  0  0  0  0  0  0  0  0
   12.4690   -5.2624   19.9024 C   0  0  0  0  0  0  0  0  0  0  0  0
    3.2548   -9.9919   17.4189 C   0  0  0  0  0  0  0  0  0  0  0  0
   12.4767   -4.7393   22.1790 C   0  0  0  0  0  0  0  0  0  0  0  0
    7.8593   -5.3772   15.3569 N   0  0  0  0  0  0  0  0  0  0  0  0
    7.4412   -6.9038   16.9283 C   0  0  0  0  0  0  0  0  0  0  0  0
  1 21  4  0
  1 23  4  0
  2  5  1  0
  2 13  4  0
  2 16  4  0
  3  6  4  0
  3  7  4  0
  4 13  4  0
  4 19  4  0
  4 24  4  0
  6 23  4  0
  7 16  1  0
  7 21  4  0
  8 18  1  0
  9 20  4  0
  9 22  4  0
 10 17  1  0
 10 25  1  0
 11 16  4  0
 11 19  4  0
 12 15  4  0
 12 22  4  0
 14 24  4  0
 14 25  4  0
 15 17  4  0
 17 20  4  0
 18 23  1  0
 19 25  4  0
M  END
$$$$

 Created by Python create_sdf_string function

 25 28  0  0  0  0  0  0  0  0999 V2000
   13.1533   -5.2399   21.0682 C   0  0  0  0  0  0  0  0  0  0  0  0
   10.4729   -4.0295   17.6135 C   0  0  0  0  0  0  0  0  0  0  0  0
   10.4789   -4.3641   20.9564 C   0  0  0  0  0  0  0  0  0  0  0  0
    8.7421   -5.1412   16.3650 C   0  0  0  0  0  0  0  0  0  0  0  0
   11.4353   -2.9204   17.8044 C   0  0  0  0  0  0  0  0  0  0  0  0
   11.1529   -4.3028   22.1277 C   0  0  0  0  0  0  0  0  0  0  0  0
   11.1290   -4.8502   19.8052 C   0  0  0  0  0  0  0  0  0  0  0  0
   12.4329   -4.2159   24.4224 C   0  0  0  0  0  0  0  0  0  0  0  0
    3.4740   -9.0387   16.5022 C   0  0  0  0  0  0  0  0  0  0  0  0
    6.8384   -7.9290   17.5282 N   0  0  0  0  0  0  0  0  0  0  0  0
    9.4126   -5.9853   18.4899 C   0  0  0  0  0  0  0  0  0  0  0  0
    4.2064  -10.3242   18.3302 C   0  0  0  0  0  0  0  0  0  0  0  0
    9.6599   -4.1551   16.4796 N   0  0  0  0  0  0  0  0  0  0  0  0
    7.0644   -6.4612   15.7375 N   0  0  0  0  0  0  0  0  0  0  0  0
    5.3549   -9.6322   18.3190 C   0  0  0  0  0  0  0  0  0  0  0  0
   10.3704   -4.9638   18.6510 C   0  0  0  0  0  0  0  0  0  0  0  0
    5.5935   -8.6419   17.4234 C   0  0  0  0  0  0  0  0  0  0  0  0
   13.0726   -4.6648   23.3394 O   0  0  0  0  0  0  0  0  0  0  0  0
    8.5955   -6.0705   17.3996 C   0  0  0  0  0  0  0  0  0  0  0  0
    4.6223   -8.3832   16.5030 C   0  0  0  0  0  0  0  0  0  0  0  0
   12.4690   -5.2624   19.9024 C   0  0  0  0  0  0  0  0  0  0  0  0
    3.2548   -9.9919   17.4189 C   0  0  0  0  0  0  0  0  0  0  0  0
   12.4767   -4.7393   22.1790 C   0  0  0  0  0  0  0  0  0  0  0  0
    7.8593   -5.3772   15.3569 N   0  0  0  0  0  0  0  0  0  0  0  0
    7.4412   -6.9038   16.9283 C   0  0  0  0  0  0  0  0  0  0  0  0
  1 21  4  0
  1 23  4  0
  2  5  1  0
  2 13  4  0
  2 16  4  0
  3  6  4  0
  3  7  4  0
  4 13  4  0
  4 19  4  0
  4 24  4  0
  6 23  4  0
  7 16  1  0
  7 21  4  0
  8 18  1  0
  9 20  4  0
  9 22  4  0
 10 17  1  0
 10 25  1  0
 11 16  4  0
 11 19  4  0
 12 15  4  0
 12 22  4  0
 14 24  4  0
 14 25  4  0
 15 17  4  0
 17 20  4  0
 18 23  1  0
 19 25  4  0
M  END
$$$$

 Created by Python create_sdf_string function

 25 28  0  0  0  0  0  0  0  0999 V2000
   13.1533   -5.2399   21.0682 C   0  0  0  0  0  0  0  0  0  0  0  0
   10.4729   -4.0295   17.6135 C   0  0  0  0  0  0  0  0  0  0  0  0
   10.4789   -4.3641   20.9564 C   0  0  0  0  0  0  0  0  0  0  0  0
    8.7421   -5.1412   16.3650 C   0  0  0  0  0  0  0  0  0  0  0  0
   11.4353   -2.9204   17.8044 C   0  0  0  0  0  0  0  0  0  0  0  0
   11.1529   -4.3028   22.1277 C   0  0  0  0  0  0  0  0  0  0  0  0
   11.1290   -4.8502   19.8052 C   0  0  0  0  0  0  0  0  0  0  0  0
   12.4329   -4.2159   24.4224 C   0  0  0  0  0  0  0  0  0  0  0  0
    3.4740   -9.0387   16.5022 C   0  0  0  0  0  0  0  0  0  0  0  0
    6.8384   -7.9290   17.5282 N   0  0  0  0  0  0  0  0  0  0  0  0
    9.4126   -5.9853   18.4899 C   0  0  0  0  0  0  0  0  0  0  0  0
    4.2064  -10.3242   18.3302 C   0  0  0  0  0  0  0  0  0  0  0  0
    9.6599   -4.1551   16.4796 N   0  0  0  0  0  0  0  0  0  0  0  0
    7.0644   -6.4612   15.7375 N   0  0  0  0  0  0  0  0  0  0  0  0
    5.3549   -9.6322   18.3190 C   0  0  0  0  0  0  0  0  0  0  0  0
   10.3704   -4.9638   18.6510 C   0  0  0  0  0  0  0  0  0  0  0  0
    5.5935   -8.6419   17.4234 C   0  0  0  0  0  0  0  0  0  0  0  0
   13.0726   -4.6648   23.3394 O   0  0  0  0  0  0  0  0  0  0  0  0
    8.5955   -6.0705   17.3996 C   0  0  0  0  0  0  0  0  0  0  0  0
    4.6223   -8.3832   16.5030 C   0  0  0  0  0  0  0  0  0  0  0  0
   12.4690   -5.2624   19.9024 C   0  0  0  0  0  0  0  0  0  0  0  0
    3.2548   -9.9919   17.4189 C   0  0  0  0  0  0  0  0  0  0  0  0
   12.4767   -4.7393   22.1790 C   0  0  0  0  0  0  0  0  0  0  0  0
    7.8593   -5.3772   15.3569 N   0  0  0  0  0  0  0  0  0  0  0  0
    7.4412   -6.9038   16.9283 C   0  0  0  0  0  0  0  0  0  0  0  0
  1 21  4  0
  1 23  4  0
  2  5  1  0
  2 13  4  0
  2 16  4  0
  3  6  4  0
  3  7  4  0
  4 13  4  0
  4 19  4  0
  4 24  4  0
  6 23  4  0
  7 16  1  0
  7 21  4  0
  8 18  1  0
  9 20  4  0
  9 22  4  0
 10 17  1  0
 10 25  1  0
 11 16  4  0
 11 19  4  0
 12 15  4  0
 12 22  4  0
 14 24  4  0
 14 25  4  0
 15 17  4  0
 17 20  4  0
 18 23  1  0
 19 25  4  0
M  END
$$$$

 Created by Python create_sdf_string function

 25 28  0  0  0  0  0  0  0  0999 V2000
   13.1533   -5.2399   21.0682 C   0  0  0  0  0  0  0  0  0  0  0  0
   10.4729   -4.0295   17.6135 C   0  0  0  0  0  0  0  0  0  0  0  0
   10.4789   -4.3641   20.9564 C   0  0  0  0  0  0  0  0  0  0  0  0
    8.7421   -5.1412   16.3650 C   0  0  0  0  0  0  0  0  0  0  0  0
   11.4353   -2.9204   17.8044 C   0  0  0  0  0  0  0  0  0  0  0  0
   11.1529   -4.3028   22.1277 C   0  0  0  0  0  0  0  0  0  0  0  0
   11.1290   -4.8502   19.8052 C   0  0  0  0  0  0  0  0  0  0  0  0
   12.4329   -4.2159   24.4224 C   0  0  0  0  0  0  0  0  0  0  0  0
    3.4740   -9.0387   16.5022 C   0  0  0  0  0  0  0  0  0  0  0  0
    6.8384   -7.9290   17.5282 N   0  0  0  0  0  0  0  0  0  0  0  0
    9.4126   -5.9853   18.4899 C   0  0  0  0  0  0  0  0  0  0  0  0
    4.2064  -10.3242   18.3302 C   0  0  0  0  0  0  0  0  0  0  0  0
    9.6599   -4.1551   16.4796 N   0  0  0  0  0  0  0  0  0  0  0  0
    7.0644   -6.4612   15.7375 N   0  0  0  0  0  0  0  0  0  0  0  0
    5.3549   -9.6322   18.3190 C   0  0  0  0  0  0  0  0  0  0  0  0
   10.3704   -4.9638   18.6510 C   0  0  0  0  0  0  0  0  0  0  0  0
    5.5935   -8.6419   17.4234 C   0  0  0  0  0  0  0  0  0  0  0  0
   13.0726   -4.6648   23.3394 O   0  0  0  0  0  0  0  0  0  0  0  0
    8.5955   -6.0705   17.3996 C   0  0  0  0  0  0  0  0  0  0  0  0
    4.6223   -8.3832   16.5030 C   0  0  0  0  0  0  0  0  0  0  0  0
   12.4690   -5.2624   19.9024 C   0  0  0  0  0  0  0  0  0  0  0  0
    3.2548   -9.9919   17.4189 C   0  0  0  0  0  0  0  0  0  0  0  0
   12.4767   -4.7393   22.1790 C   0  0  0  0  0  0  0  0  0  0  0  0
    7.8593   -5.3772   15.3569 N   0  0  0  0  0  0  0  0  0  0  0  0
    7.4412   -6.9038   16.9283 C   0  0  0  0  0  0  0  0  0  0  0  0
  1 21  4  0
  1 23  4  0
  2  5  1  0
  2 13  4  0
  2 16  4  0
  3  6  4  0
  3  7  4  0
  4 13  4  0
  4 19  4  0
  4 24  4  0
  6 23  4  0
  7 16  1  0
  7 21  4  0
  8 18  1  0
  9 20  4  0
  9 22  4  0
 10 17  1  0
 10 25  1  0
 11 16  4  0
 11 19  4  0
 12 15  4  0
 12 22  4  0
 14 24  4  0
 14 25  4  0
 15 17  4  0
 17 20  4  0
 18 23  1  0
 19 25  4  0
M  END
$$$$

 Created by Python create_sdf_string function

 25 28  0  0  0  0  0  0  0  0999 V2000
   13.1533   -5.2399   21.0682 C   0  0  0  0  0  0  0  0  0  0  0  0
   10.4729   -4.0295   17.6135 C   0  0  0  0  0  0  0  0  0  0  0  0
   10.4789   -4.3641   20.9564 C   0  0  0  0  0  0  0  0  0  0  0  0
    8.7421   -5.1412   16.3650 C   0  0  0  0  0  0  0  0  0  0  0  0
   11.4353   -2.9204   17.8044 C   0  0  0  0  0  0  0  0  0  0  0  0
   11.1529   -4.3028   22.1277 C   0  0  0  0  0  0  0  0  0  0  0  0
   11.1290   -4.8502   19.8052 C   0  0  0  0  0  0  0  0  0  0  0  0
   12.4329   -4.2159   24.4224 C   0  0  0  0  0  0  0  0  0  0  0  0
    3.4740   -9.0387   16.5022 C   0  0  0  0  0  0  0  0  0  0  0  0
    6.8384   -7.9290   17.5282 N   0  0  0  0  0  0  0  0  0  0  0  0
    9.4126   -5.9853   18.4899 C   0  0  0  0  0  0  0  0  0  0  0  0
    4.2064  -10.3242   18.3302 C   0  0  0  0  0  0  0  0  0  0  0  0
    9.6599   -4.1551   16.4796 N   0  0  0  0  0  0  0  0  0  0  0  0
    7.0644   -6.4612   15.7375 N   0  0  0  0  0  0  0  0  0  0  0  0
    5.3549   -9.6322   18.3190 C   0  0  0  0  0  0  0  0  0  0  0  0
   10.3704   -4.9638   18.6510 C   0  0  0  0  0  0  0  0  0  0  0  0
    5.5935   -8.6419   17.4234 C   0  0  0  0  0  0  0  0  0  0  0  0
   13.0726   -4.6648   23.3394 O   0  0  0  0  0  0  0  0  0  0  0  0
    8.5955   -6.0705   17.3996 C   0  0  0  0  0  0  0  0  0  0  0  0
    4.6223   -8.3832   16.5030 C   0  0  0  0  0  0  0  0  0  0  0  0
   12.4690   -5.2624   19.9024 C   0  0  0  0  0  0  0  0  0  0  0  0
    3.2548   -9.9919   17.4189 C   0  0  0  0  0  0  0  0  0  0  0  0
   12.4767   -4.7393   22.1790 C   0  0  0  0  0  0  0  0  0  0  0  0
    7.8593   -5.3772   15.3569 N   0  0  0  0  0  0  0  0  0  0  0  0
    7.4412   -6.9038   16.9283 C   0  0  0  0  0  0  0  0  0  0  0  0
  1 21  4  0
  1 23  4  0
  2  5  1  0
  2 13  4  0
  2 16  4  0
  3  6  4  0
  3  7  4  0
  4 13  4  0
  4 19  4  0
  4 24  4  0
  6 23  4  0
  7 16  1  0
  7 21  4  0
  8 18  1  0
  9 20  4  0
  9 22  4  0
 10 17  1  0
 10 25  1  0
 11 16  4  0
 11 19  4  0
 12 15  4  0
 12 22  4  0
 14 24  4  0
 14 25  4  0
 15 17  4  0
 17 20  4  0
 18 23  1  0
 19 25  4  0
M  END
$$$$

 Created by Python create_sdf_string function

 25 28  0  0  0  0  0  0  0  0999 V2000
   13.1533   -5.2399   21.0682 C   0  0  0  0  0  0  0  0  0  0  0  0
   10.4729   -4.0295   17.6135 C   0  0  0  0  0  0  0  0  0  0  0  0
   10.4789   -4.3641   20.9564 C   0  0  0  0  0  0  0  0  0  0  0  0
    8.7421   -5.1412   16.3650 C   0  0  0  0  0  0  0  0  0  0  0  0
   11.4353   -2.9204   17.8044 C   0  0  0  0  0  0  0  0  0  0  0  0
   11.1529   -4.3028   22.1277 C   0  0  0  0  0  0  0  0  0  0  0  0
   11.1290   -4.8502   19.8052 C   0  0  0  0  0  0  0  0  0  0  0  0
   12.4329   -4.2159   24.4224 C   0  0  0  0  0  0  0  0  0  0  0  0
    3.4740   -9.0387   16.5022 C   0  0  0  0  0  0  0  0  0  0  0  0
    6.8384   -7.9290   17.5282 N   0  0  0  0  0  0  0  0  0  0  0  0
    9.4126   -5.9853   18.4899 C   0  0  0  0  0  0  0  0  0  0  0  0
    4.2064  -10.3242   18.3302 C   0  0  0  0  0  0  0  0  0  0  0  0
    9.6599   -4.1551   16.4796 N   0  0  0  0  0  0  0  0  0  0  0  0
    7.0644   -6.4612   15.7375 N   0  0  0  0  0  0  0  0  0  0  0  0
    5.3549   -9.6322   18.3190 C   0  0  0  0  0  0  0  0  0  0  0  0
   10.3704   -4.9638   18.6510 C   0  0  0  0  0  0  0  0  0  0  0  0
    5.5935   -8.6419   17.4234 C   0  0  0  0  0  0  0  0  0  0  0  0
   13.0726   -4.6648   23.3394 O   0  0  0  0  0  0  0  0  0  0  0  0
    8.5955   -6.0705   17.3996 C   0  0  0  0  0  0  0  0  0  0  0  0
    4.6223   -8.3832   16.5030 C   0  0  0  0  0  0  0  0  0  0  0  0
   12.4690   -5.2624   19.9024 C   0  0  0  0  0  0  0  0  0  0  0  0
    3.2548   -9.9919   17.4189 C   0  0  0  0  0  0  0  0  0  0  0  0
   12.4767   -4.7393   22.1790 C   0  0  0  0  0  0  0  0  0  0  0  0
    7.8593   -5.3772   15.3569 N   0  0  0  0  0  0  0  0  0  0  0  0
    7.4412   -6.9038   16.9283 C   0  0  0  0  0  0  0  0  0  0  0  0
  1 21  4  0
  1 23  4  0
  2  5  1  0
  2 13  4  0
  2 16  4  0
  3  6  4  0
  3  7  4  0
  4 13  4  0
  4 19  4  0
  4 24  4  0
  6 23  4  0
  7 16  1  0
  7 21  4  0
  8 18  1  0
  9 20  4  0
  9 22  4  0
 10 17  1  0
 10 25  1  0
 11 16  4  0
 11 19  4  0
 12 15  4  0
 12 22  4  0
 14 24  4  0
 14 25  4  0
 15 17  4  0
 17 20  4  0
 18 23  1  0
 19 25  4  0
M  END
$$$$

 Created by Python create_sdf_string function

 25 28  0  0  0  0  0  0  0  0999 V2000
   13.1533   -5.2399   21.0682 C   0  0  0  0  0  0  0  0  0  0  0  0
   10.4729   -4.0295   17.6135 C   0  0  0  0  0  0  0  0  0  0  0  0
   10.4789   -4.3641   20.9564 C   0  0  0  0  0  0  0  0  0  0  0  0
    8.7421   -5.1412   16.3650 C   0  0  0  0  0  0  0  0  0  0  0  0
   11.4353   -2.9204   17.8044 C   0  0  0  0  0  0  0  0  0  0  0  0
   11.1529   -4.3028   22.1277 C   0  0  0  0  0  0  0  0  0  0  0  0
   11.1290   -4.8502   19.8052 C   0  0  0  0  0  0  0  0  0  0  0  0
   12.4329   -4.2159   24.4224 C   0  0  0  0  0  0  0  0  0  0  0  0
    3.4740   -9.0387   16.5022 C   0  0  0  0  0  0  0  0  0  0  0  0
    6.8384   -7.9290   17.5282 N   0  0  0  0  0  0  0  0  0  0  0  0
    9.4126   -5.9853   18.4899 C   0  0  0  0  0  0  0  0  0  0  0  0
    4.2064  -10.3242   18.3302 C   0  0  0  0  0  0  0  0  0  0  0  0
    9.6599   -4.1551   16.4796 N   0  0  0  0  0  0  0  0  0  0  0  0
    7.0644   -6.4612   15.7375 N   0  0  0  0  0  0  0  0  0  0  0  0
    5.3549   -9.6322   18.3190 C   0  0  0  0  0  0  0  0  0  0  0  0
   10.3704   -4.9638   18.6510 C   0  0  0  0  0  0  0  0  0  0  0  0
    5.5935   -8.6419   17.4234 C   0  0  0  0  0  0  0  0  0  0  0  0
   13.0726   -4.6648   23.3394 O   0  0  0  0  0  0  0  0  0  0  0  0
    8.5955   -6.0705   17.3996 C   0  0  0  0  0  0  0  0  0  0  0  0
    4.6223   -8.3832   16.5030 C   0  0  0  0  0  0  0  0  0  0  0  0
   12.4690   -5.2624   19.9024 C   0  0  0  0  0  0  0  0  0  0  0  0
    3.2548   -9.9919   17.4189 C   0  0  0  0  0  0  0  0  0  0  0  0
   12.4767   -4.7393   22.1790 C   0  0  0  0  0  0  0  0  0  0  0  0
    7.8593   -5.3772   15.3569 N   0  0  0  0  0  0  0  0  0  0  0  0
    7.4412   -6.9038   16.9283 C   0  0  0  0  0  0  0  0  0  0  0  0
  1 21  4  0
  1 23  4  0
  2  5  1  0
  2 13  4  0
  2 16  4  0
  3  6  4  0
  3  7  4  0
  4 13  4  0
  4 19  4  0
  4 24  4  0
  6 23  4  0
  7 16  1  0
  7 21  4  0
  8 18  1  0
  9 20  4  0
  9 22  4  0
 10 17  1  0
 10 25  1  0
 11 16  4  0
 11 19  4  0
 12 15  4  0
 12 22  4  0
 14 24  4  0
 14 25  4  0
 15 17  4  0
 17 20  4  0
 18 23  1  0
 19 25  4  0
M  END
$$$$

 Created by Python create_sdf_string function

 25 28  0  0  0  0  0  0  0  0999 V2000
   13.1533   -5.2399   21.0682 C   0  0  0  0  0  0  0  0  0  0  0  0
   10.4729   -4.0295   17.6135 C   0  0  0  0  0  0  0  0  0  0  0  0
   10.4789   -4.3641   20.9564 C   0  0  0  0  0  0  0  0  0  0  0  0
    8.7421   -5.1412   16.3650 C   0  0  0  0  0  0  0  0  0  0  0  0
   11.4353   -2.9204   17.8044 C   0  0  0  0  0  0  0  0  0  0  0  0
   11.1529   -4.3028   22.1277 C   0  0  0  0  0  0  0  0  0  0  0  0
   11.1290   -4.8502   19.8052 C   0  0  0  0  0  0  0  0  0  0  0  0
   12.4329   -4.2159   24.4224 C   0  0  0  0  0  0  0  0  0  0  0  0
    3.4740   -9.0387   16.5022 C   0  0  0  0  0  0  0  0  0  0  0  0
    6.8384   -7.9290   17.5282 N   0  0  0  0  0  0  0  0  0  0  0  0
    9.4126   -5.9853   18.4899 C   0  0  0  0  0  0  0  0  0  0  0  0
    4.2064  -10.3242   18.3302 C   0  0  0  0  0  0  0  0  0  0  0  0
    9.6599   -4.1551   16.4796 N   0  0  0  0  0  0  0  0  0  0  0  0
    7.0644   -6.4612   15.7375 N   0  0  0  0  0  0  0  0  0  0  0  0
    5.3549   -9.6322   18.3190 C   0  0  0  0  0  0  0  0  0  0  0  0
   10.3704   -4.9638   18.6510 C   0  0  0  0  0  0  0  0  0  0  0  0
    5.5935   -8.6419   17.4234 C   0  0  0  0  0  0  0  0  0  0  0  0
   13.0726   -4.6648   23.3394 O   0  0  0  0  0  0  0  0  0  0  0  0
    8.5955   -6.0705   17.3996 C   0  0  0  0  0  0  0  0  0  0  0  0
    4.6223   -8.3832   16.5030 C   0  0  0  0  0  0  0  0  0  0  0  0
   12.4690   -5.2624   19.9024 C   0  0  0  0  0  0  0  0  0  0  0  0
    3.2548   -9.9919   17.4189 C   0  0  0  0  0  0  0  0  0  0  0  0
   12.4767   -4.7393   22.1790 C   0  0  0  0  0  0  0  0  0  0  0  0
    7.8593   -5.3772   15.3569 N   0  0  0  0  0  0  0  0  0  0  0  0
    7.4412   -6.9038   16.9283 C   0  0  0  0  0  0  0  0  0  0  0  0
  1 21  4  0
  1 23  4  0
  2  5  1  0
  2 13  4  0
  2 16  4  0
  3  6  4  0
  3  7  4  0
  4 13  4  0
  4 19  4  0
  4 24  4  0
  6 23  4  0
  7 16  1  0
  7 21  4  0
  8 18  1  0
  9 20  4  0
  9 22  4  0
 10 17  1  0
 10 25  1  0
 11 16  4  0
 11 19  4  0
 12 15  4  0
 12 22  4  0
 14 24  4  0
 14 25  4  0
 15 17  4  0
 17 20  4  0
 18 23  1  0
 19 25  4  0
M  END
$$$$

 Created by Python create_sdf_string function

 25 28  0  0  0  0  0  0  0  0999 V2000
   13.1533   -5.2399   21.0682 C   0  0  0  0  0  0  0  0  0  0  0  0
   10.4729   -4.0295   17.6135 C   0  0  0  0  0  0  0  0  0  0  0  0
   10.4789   -4.3641   20.9564 C   0  0  0  0  0  0  0  0  0  0  0  0
    8.7421   -5.1412   16.3650 C   0  0  0  0  0  0  0  0  0  0  0  0
   11.4353   -2.9204   17.8044 C   0  0  0  0  0  0  0  0  0  0  0  0
   11.1529   -4.3028   22.1277 C   0  0  0  0  0  0  0  0  0  0  0  0
   11.1290   -4.8502   19.8052 C   0  0  0  0  0  0  0  0  0  0  0  0
   12.4329   -4.2159   24.4224 C   0  0  0  0  0  0  0  0  0  0  0  0
    3.4740   -9.0387   16.5022 C   0  0  0  0  0  0  0  0  0  0  0  0
    6.8384   -7.9290   17.5282 N   0  0  0  0  0  0  0  0  0  0  0  0
    9.4126   -5.9853   18.4899 C   0  0  0  0  0  0  0  0  0  0  0  0
    4.2064  -10.3242   18.3302 C   0  0  0  0  0  0  0  0  0  0  0  0
    9.6599   -4.1551   16.4796 N   0  0  0  0  0  0  0  0  0  0  0  0
    7.0644   -6.4612   15.7375 N   0  0  0  0  0  0  0  0  0  0  0  0
    5.3549   -9.6322   18.3190 C   0  0  0  0  0  0  0  0  0  0  0  0
   10.3704   -4.9638   18.6510 C   0  0  0  0  0  0  0  0  0  0  0  0
    5.5935   -8.6419   17.4234 C   0  0  0  0  0  0  0  0  0  0  0  0
   13.0726   -4.6648   23.3394 O   0  0  0  0  0  0  0  0  0  0  0  0
    8.5955   -6.0705   17.3996 C   0  0  0  0  0  0  0  0  0  0  0  0
    4.6223   -8.3832   16.5030 C   0  0  0  0  0  0  0  0  0  0  0  0
   12.4690   -5.2624   19.9024 C   0  0  0  0  0  0  0  0  0  0  0  0
    3.2548   -9.9919   17.4189 C   0  0  0  0  0  0  0  0  0  0  0  0
   12.4767   -4.7393   22.1790 C   0  0  0  0  0  0  0  0  0  0  0  0
    7.8593   -5.3772   15.3569 N   0  0  0  0  0  0  0  0  0  0  0  0
    7.4412   -6.9038   16.9283 C   0  0  0  0  0  0  0  0  0  0  0  0
  1 21  4  0
  1 23  4  0
  2  5  1  0
  2 13  4  0
  2 16  4  0
  3  6  4  0
  3  7  4  0
  4 13  4  0
  4 19  4  0
  4 24  4  0
  6 23  4  0
  7 16  1  0
  7 21  4  0
  8 18  1  0
  9 20  4  0
  9 22  4  0
 10 17  1  0
 10 25  1  0
 11 16  4  0
 11 19  4  0
 12 15  4  0
 12 22  4  0
 14 24  4  0
 14 25  4  0
 15 17  4  0
 17 20  4  0
 18 23  1  0
 19 25  4  0
M  END
$$$$

 Created by Python create_sdf_string function

 25 28  0  0  0  0  0  0  0  0999 V2000
   13.1533   -5.2399   21.0682 C   0  0  0  0  0  0  0  0  0  0  0  0
   10.4729   -4.0295   17.6135 C   0  0  0  0  0  0  0  0  0  0  0  0
   10.4789   -4.3641   20.9564 C   0  0  0  0  0  0  0  0  0  0  0  0
    8.7421   -5.1412   16.3650 C   0  0  0  0  0  0  0  0  0  0  0  0
   11.4353   -2.9204   17.8044 C   0  0  0  0  0  0  0  0  0  0  0  0
   11.1529   -4.3028   22.1277 C   0  0  0  0  0  0  0  0  0  0  0  0
   11.1290   -4.8502   19.8052 C   0  0  0  0  0  0  0  0  0  0  0  0
   12.4329   -4.2159   24.4224 C   0  0  0  0  0  0  0  0  0  0  0  0
    3.4740   -9.0387   16.5022 C   0  0  0  0  0  0  0  0  0  0  0  0
    6.8384   -7.9290   17.5282 N   0  0  0  0  0  0  0  0  0  0  0  0
    9.4126   -5.9853   18.4899 C   0  0  0  0  0  0  0  0  0  0  0  0
    4.2064  -10.3242   18.3302 C   0  0  0  0  0  0  0  0  0  0  0  0
    9.6599   -4.1551   16.4796 N   0  0  0  0  0  0  0  0  0  0  0  0
    7.0644   -6.4612   15.7375 N   0  0  0  0  0  0  0  0  0  0  0  0
    5.3549   -9.6322   18.3190 C   0  0  0  0  0  0  0  0  0  0  0  0
   10.3704   -4.9638   18.6510 C   0  0  0  0  0  0  0  0  0  0  0  0
    5.5935   -8.6419   17.4234 C   0  0  0  0  0  0  0  0  0  0  0  0
   13.0726   -4.6648   23.3394 O   0  0  0  0  0  0  0  0  0  0  0  0
    8.5955   -6.0705   17.3996 C   0  0  0  0  0  0  0  0  0  0  0  0
    4.6223   -8.3832   16.5030 C   0  0  0  0  0  0  0  0  0  0  0  0
   12.4690   -5.2624   19.9024 C   0  0  0  0  0  0  0  0  0  0  0  0
    3.2548   -9.9919   17.4189 C   0  0  0  0  0  0  0  0  0  0  0  0
   12.4767   -4.7393   22.1790 C   0  0  0  0  0  0  0  0  0  0  0  0
    7.8593   -5.3772   15.3569 N   0  0  0  0  0  0  0  0  0  0  0  0
    7.4412   -6.9038   16.9283 C   0  0  0  0  0  0  0  0  0  0  0  0
  1 21  4  0
  1 23  4  0
  2  5  1  0
  2 13  4  0
  2 16  4  0
  3  6  4  0
  3  7  4  0
  4 13  4  0
  4 19  4  0
  4 24  4  0
  6 23  4  0
  7 16  1  0
  7 21  4  0
  8 18  1  0
  9 20  4  0
  9 22  4  0
 10 17  1  0
 10 25  1  0
 11 16  4  0
 11 19  4  0
 12 15  4  0
 12 22  4  0
 14 24  4  0
 14 25  4  0
 15 17  4  0
 17 20  4  0
 18 23  1  0
 19 25  4  0
M  END
$$$$

 Created by Python create_sdf_string function

 25 28  0  0  0  0  0  0  0  0999 V2000
   13.1533   -5.2399   21.0682 C   0  0  0  0  0  0  0  0  0  0  0  0
   10.4729   -4.0295   17.6135 C   0  0  0  0  0  0  0  0  0  0  0  0
   10.4789   -4.3641   20.9564 C   0  0  0  0  0  0  0  0  0  0  0  0
    8.7421   -5.1412   16.3650 C   0  0  0  0  0  0  0  0  0  0  0  0
   11.4353   -2.9204   17.8044 C   0  0  0  0  0  0  0  0  0  0  0  0
   11.1529   -4.3028   22.1277 C   0  0  0  0  0  0  0  0  0  0  0  0
   11.1290   -4.8502   19.8052 C   0  0  0  0  0  0  0  0  0  0  0  0
   12.4329   -4.2159   24.4224 C   0  0  0  0  0  0  0  0  0  0  0  0
    3.4740   -9.0387   16.5022 C   0  0  0  0  0  0  0  0  0  0  0  0
    6.8384   -7.9290   17.5282 N   0  0  0  0  0  0  0  0  0  0  0  0
    9.4126   -5.9853   18.4899 C   0  0  0  0  0  0  0  0  0  0  0  0
    4.2064  -10.3242   18.3302 C   0  0  0  0  0  0  0  0  0  0  0  0
    9.6599   -4.1551   16.4796 N   0  0  0  0  0  0  0  0  0  0  0  0
    7.0644   -6.4612   15.7375 N   0  0  0  0  0  0  0  0  0  0  0  0
    5.3549   -9.6322   18.3190 C   0  0  0  0  0  0  0  0  0  0  0  0
   10.3704   -4.9638   18.6510 C   0  0  0  0  0  0  0  0  0  0  0  0
    5.5935   -8.6419   17.4234 C   0  0  0  0  0  0  0  0  0  0  0  0
   13.0726   -4.6648   23.3394 O   0  0  0  0  0  0  0  0  0  0  0  0
    8.5955   -6.0705   17.3996 C   0  0  0  0  0  0  0  0  0  0  0  0
    4.6223   -8.3832   16.5030 C   0  0  0  0  0  0  0  0  0  0  0  0
   12.4690   -5.2624   19.9024 C   0  0  0  0  0  0  0  0  0  0  0  0
    3.2548   -9.9919   17.4189 C   0  0  0  0  0  0  0  0  0  0  0  0
   12.4767   -4.7393   22.1790 C   0  0  0  0  0  0  0  0  0  0  0  0
    7.8593   -5.3772   15.3569 N   0  0  0  0  0  0  0  0  0  0  0  0
    7.4412   -6.9038   16.9283 C   0  0  0  0  0  0  0  0  0  0  0  0
  1 21  4  0
  1 23  4  0
  2  5  1  0
  2 13  4  0
  2 16  4  0
  3  6  4  0
  3  7  4  0
  4 13  4  0
  4 19  4  0
  4 24  4  0
  6 23  4  0
  7 16  1  0
  7 21  4  0
  8 18  1  0
  9 20  4  0
  9 22  4  0
 10 17  1  0
 10 25  1  0
 11 16  4  0
 11 19  4  0
 12 15  4  0
 12 22  4  0
 14 24  4  0
 14 25  4  0
 15 17  4  0
 17 20  4  0
 18 23  1  0
 19 25  4  0
M  END
$$$$

 Created by Python create_sdf_string function

 25 28  0  0  0  0  0  0  0  0999 V2000
   13.1533   -5.2399   21.0682 C   0  0  0  0  0  0  0  0  0  0  0  0
   10.4729   -4.0295   17.6135 C   0  0  0  0  0  0  0  0  0  0  0  0
   10.4789   -4.3641   20.9564 C   0  0  0  0  0  0  0  0  0  0  0  0
    8.7421   -5.1412   16.3650 C   0  0  0  0  0  0  0  0  0  0  0  0
   11.4353   -2.9204   17.8044 C   0  0  0  0  0  0  0  0  0  0  0  0
   11.1529   -4.3028   22.1277 C   0  0  0  0  0  0  0  0  0  0  0  0
   11.1290   -4.8502   19.8052 C   0  0  0  0  0  0  0  0  0  0  0  0
   12.4329   -4.2159   24.4224 C   0  0  0  0  0  0  0  0  0  0  0  0
    3.4740   -9.0387   16.5022 C   0  0  0  0  0  0  0  0  0  0  0  0
    6.8384   -7.9290   17.5282 N   0  0  0  0  0  0  0  0  0  0  0  0
    9.4126   -5.9853   18.4899 C   0  0  0  0  0  0  0  0  0  0  0  0
    4.2064  -10.3242   18.3302 C   0  0  0  0  0  0  0  0  0  0  0  0
    9.6599   -4.1551   16.4796 N   0  0  0  0  0  0  0  0  0  0  0  0
    7.0644   -6.4612   15.7375 N   0  0  0  0  0  0  0  0  0  0  0  0
    5.3549   -9.6322   18.3190 C   0  0  0  0  0  0  0  0  0  0  0  0
   10.3704   -4.9638   18.6510 C   0  0  0  0  0  0  0  0  0  0  0  0
    5.5935   -8.6419   17.4234 C   0  0  0  0  0  0  0  0  0  0  0  0
   13.0726   -4.6648   23.3394 O   0  0  0  0  0  0  0  0  0  0  0  0
    8.5955   -6.0705   17.3996 C   0  0  0  0  0  0  0  0  0  0  0  0
    4.6223   -8.3832   16.5030 C   0  0  0  0  0  0  0  0  0  0  0  0
   12.4690   -5.2624   19.9024 C   0  0  0  0  0  0  0  0  0  0  0  0
    3.2548   -9.9919   17.4189 C   0  0  0  0  0  0  0  0  0  0  0  0
   12.4767   -4.7393   22.1790 C   0  0  0  0  0  0  0  0  0  0  0  0
    7.8593   -5.3772   15.3569 N   0  0  0  0  0  0  0  0  0  0  0  0
    7.4412   -6.9038   16.9283 C   0  0  0  0  0  0  0  0  0  0  0  0
  1 21  4  0
  1 23  4  0
  2  5  1  0
  2 13  4  0
  2 16  4  0
  3  6  4  0
  3  7  4  0
  4 13  4  0
  4 19  4  0
  4 24  4  0
  6 23  4  0
  7 16  1  0
  7 21  4  0
  8 18  1  0
  9 20  4  0
  9 22  4  0
 10 17  1  0
 10 25  1  0
 11 16  4  0
 11 19  4  0
 12 15  4  0
 12 22  4  0
 14 24  4  0
 14 25  4  0
 15 17  4  0
 17 20  4  0
 18 23  1  0
 19 25  4  0
M  END
$$$$

 Created by Python create_sdf_string function

 25 28  0  0  0  0  0  0  0  0999 V2000
   13.1533   -5.2399   21.0682 C   0  0  0  0  0  0  0  0  0  0  0  0
   10.4729   -4.0295   17.6135 C   0  0  0  0  0  0  0  0  0  0  0  0
   10.4789   -4.3641   20.9564 C   0  0  0  0  0  0  0  0  0  0  0  0
    8.7421   -5.1412   16.3650 C   0  0  0  0  0  0  0  0  0  0  0  0
   11.4353   -2.9204   17.8044 C   0  0  0  0  0  0  0  0  0  0  0  0
   11.1529   -4.3028   22.1277 C   0  0  0  0  0  0  0  0  0  0  0  0
   11.1290   -4.8502   19.8052 C   0  0  0  0  0  0  0  0  0  0  0  0
   12.4329   -4.2159   24.4224 C   0  0  0  0  0  0  0  0  0  0  0  0
    3.4740   -9.0387   16.5022 C   0  0  0  0  0  0  0  0  0  0  0  0
    6.8384   -7.9290   17.5282 N   0  0  0  0  0  0  0  0  0  0  0  0
    9.4126   -5.9853   18.4899 C   0  0  0  0  0  0  0  0  0  0  0  0
    4.2064  -10.3242   18.3302 C   0  0  0  0  0  0  0  0  0  0  0  0
    9.6599   -4.1551   16.4796 N   0  0  0  0  0  0  0  0  0  0  0  0
    7.0644   -6.4612   15.7375 N   0  0  0  0  0  0  0  0  0  0  0  0
    5.3549   -9.6322   18.3190 C   0  0  0  0  0  0  0  0  0  0  0  0
   10.3704   -4.9638   18.6510 C   0  0  0  0  0  0  0  0  0  0  0  0
    5.5935   -8.6419   17.4234 C   0  0  0  0  0  0  0  0  0  0  0  0
   13.0726   -4.6648   23.3394 O   0  0  0  0  0  0  0  0  0  0  0  0
    8.5955   -6.0705   17.3996 C   0  0  0  0  0  0  0  0  0  0  0  0
    4.6223   -8.3832   16.5030 C   0  0  0  0  0  0  0  0  0  0  0  0
   12.4690   -5.2624   19.9024 C   0  0  0  0  0  0  0  0  0  0  0  0
    3.2548   -9.9919   17.4189 C   0  0  0  0  0  0  0  0  0  0  0  0
   12.4767   -4.7393   22.1790 C   0  0  0  0  0  0  0  0  0  0  0  0
    7.8593   -5.3772   15.3569 N   0  0  0  0  0  0  0  0  0  0  0  0
    7.4412   -6.9038   16.9283 C   0  0  0  0  0  0  0  0  0  0  0  0
  1 21  4  0
  1 23  4  0
  2  5  1  0
  2 13  4  0
  2 16  4  0
  3  6  4  0
  3  7  4  0
  4 13  4  0
  4 19  4  0
  4 24  4  0
  6 23  4  0
  7 16  1  0
  7 21  4  0
  8 18  1  0
  9 20  4  0
  9 22  4  0
 10 17  1  0
 10 25  1  0
 11 16  4  0
 11 19  4  0
 12 15  4  0
 12 22  4  0
 14 24  4  0
 14 25  4  0
 15 17  4  0
 17 20  4  0
 18 23  1  0
 19 25  4  0
M  END
$$$$

 Created by Python create_sdf_string function

 25 28  0  0  0  0  0  0  0  0999 V2000
   13.1533   -5.2399   21.0682 C   0  0  0  0  0  0  0  0  0  0  0  0
   10.4729   -4.0295   17.6135 C   0  0  0  0  0  0  0  0  0  0  0  0
   10.4789   -4.3641   20.9564 C   0  0  0  0  0  0  0  0  0  0  0  0
    8.7421   -5.1412   16.3650 C   0  0  0  0  0  0  0  0  0  0  0  0
   11.4353   -2.9204   17.8044 C   0  0  0  0  0  0  0  0  0  0  0  0
   11.1529   -4.3028   22.1277 C   0  0  0  0  0  0  0  0  0  0  0  0
   11.1290   -4.8502   19.8052 C   0  0  0  0  0  0  0  0  0  0  0  0
   12.4329   -4.2159   24.4224 C   0  0  0  0  0  0  0  0  0  0  0  0
    3.4740   -9.0387   16.5022 C   0  0  0  0  0  0  0  0  0  0  0  0
    6.8384   -7.9290   17.5282 N   0  0  0  0  0  0  0  0  0  0  0  0
    9.4126   -5.9853   18.4899 C   0  0  0  0  0  0  0  0  0  0  0  0
    4.2064  -10.3242   18.3302 C   0  0  0  0  0  0  0  0  0  0  0  0
    9.6599   -4.1551   16.4796 N   0  0  0  0  0  0  0  0  0  0  0  0
    7.0644   -6.4612   15.7375 N   0  0  0  0  0  0  0  0  0  0  0  0
    5.3549   -9.6322   18.3190 C   0  0  0  0  0  0  0  0  0  0  0  0
   10.3704   -4.9638   18.6510 C   0  0  0  0  0  0  0  0  0  0  0  0
    5.5935   -8.6419   17.4234 C   0  0  0  0  0  0  0  0  0  0  0  0
   13.0726   -4.6648   23.3394 O   0  0  0  0  0  0  0  0  0  0  0  0
    8.5955   -6.0705   17.3996 C   0  0  0  0  0  0  0  0  0  0  0  0
    4.6223   -8.3832   16.5030 C   0  0  0  0  0  0  0  0  0  0  0  0
   12.4690   -5.2624   19.9024 C   0  0  0  0  0  0  0  0  0  0  0  0
    3.2548   -9.9919   17.4189 C   0  0  0  0  0  0  0  0  0  0  0  0
   12.4767   -4.7393   22.1790 C   0  0  0  0  0  0  0  0  0  0  0  0
    7.8593   -5.3772   15.3569 N   0  0  0  0  0  0  0  0  0  0  0  0
    7.4412   -6.9038   16.9283 C   0  0  0  0  0  0  0  0  0  0  0  0
  1 21  4  0
  1 23  4  0
  2  5  1  0
  2 13  4  0
  2 16  4  0
  3  6  4  0
  3  7  4  0
  4 13  4  0
  4 19  4  0
  4 24  4  0
  6 23  4  0
  7 16  1  0
  7 21  4  0
  8 18  1  0
  9 20  4  0
  9 22  4  0
 10 17  1  0
 10 25  1  0
 11 16  4  0
 11 19  4  0
 12 15  4  0
 12 22  4  0
 14 24  4  0
 14 25  4  0
 15 17  4  0
 17 20  4  0
 18 23  1  0
 19 25  4  0
M  END
$$$$

 Created by Python create_sdf_string function

 25 28  0  0  0  0  0  0  0  0999 V2000
   13.1533   -5.2399   21.0682 C   0  0  0  0  0  0  0  0  0  0  0  0
   10.4729   -4.0295   17.6135 C   0  0  0  0  0  0  0  0  0  0  0  0
   10.4789   -4.3641   20.9564 C   0  0  0  0  0  0  0  0  0  0  0  0
    8.7421   -5.1412   16.3650 C   0  0  0  0  0  0  0  0  0  0  0  0
   11.4353   -2.9204   17.8044 C   0  0  0  0  0  0  0  0  0  0  0  0
   11.1529   -4.3028   22.1277 C   0  0  0  0  0  0  0  0  0  0  0  0
   11.1290   -4.8502   19.8052 C   0  0  0  0  0  0  0  0  0  0  0  0
   12.4329   -4.2159   24.4224 C   0  0  0  0  0  0  0  0  0  0  0  0
    3.4740   -9.0387   16.5022 C   0  0  0  0  0  0  0  0  0  0  0  0
    6.8384   -7.9290   17.5282 N   0  0  0  0  0  0  0  0  0  0  0  0
    9.4126   -5.9853   18.4899 C   0  0  0  0  0  0  0  0  0  0  0  0
    4.2064  -10.3242   18.3302 C   0  0  0  0  0  0  0  0  0  0  0  0
    9.6599   -4.1551   16.4796 N   0  0  0  0  0  0  0  0  0  0  0  0
    7.0644   -6.4612   15.7375 N   0  0  0  0  0  0  0  0  0  0  0  0
    5.3549   -9.6322   18.3190 C   0  0  0  0  0  0  0  0  0  0  0  0
   10.3704   -4.9638   18.6510 C   0  0  0  0  0  0  0  0  0  0  0  0
    5.5935   -8.6419   17.4234 C   0  0  0  0  0  0  0  0  0  0  0  0
   13.0726   -4.6648   23.3394 O   0  0  0  0  0  0  0  0  0  0  0  0
    8.5955   -6.0705   17.3996 C   0  0  0  0  0  0  0  0  0  0  0  0
    4.6223   -8.3832   16.5030 C   0  0  0  0  0  0  0  0  0  0  0  0
   12.4690   -5.2624   19.9024 C   0  0  0  0  0  0  0  0  0  0  0  0
    3.2548   -9.9919   17.4189 C   0  0  0  0  0  0  0  0  0  0  0  0
   12.4767   -4.7393   22.1790 C   0  0  0  0  0  0  0  0  0  0  0  0
    7.8593   -5.3772   15.3569 N   0  0  0  0  0  0  0  0  0  0  0  0
    7.4412   -6.9038   16.9283 C   0  0  0  0  0  0  0  0  0  0  0  0
  1 21  4  0
  1 23  4  0
  2  5  1  0
  2 13  4  0
  2 16  4  0
  3  6  4  0
  3  7  4  0
  4 13  4  0
  4 19  4  0
  4 24  4  0
  6 23  4  0
  7 16  1  0
  7 21  4  0
  8 18  1  0
  9 20  4  0
  9 22  4  0
 10 17  1  0
 10 25  1  0
 11 16  4  0
 11 19  4  0
 12 15  4  0
 12 22  4  0
 14 24  4  0
 14 25  4  0
 15 17  4  0
 17 20  4  0
 18 23  1  0
 19 25  4  0
M  END
$$$$

 Created by Python create_sdf_string function

 25 28  0  0  0  0  0  0  0  0999 V2000
   13.1533   -5.2399   21.0682 C   0  0  0  0  0  0  0  0  0  0  0  0
   10.4729   -4.0295   17.6135 C   0  0  0  0  0  0  0  0  0  0  0  0
   10.4789   -4.3641   20.9564 C   0  0  0  0  0  0  0  0  0  0  0  0
    8.7421   -5.1412   16.3650 C   0  0  0  0  0  0  0  0  0  0  0  0
   11.4353   -2.9204   17.8044 C   0  0  0  0  0  0  0  0  0  0  0  0
   11.1529   -4.3028   22.1277 C   0  0  0  0  0  0  0  0  0  0  0  0
   11.1290   -4.8502   19.8052 C   0  0  0  0  0  0  0  0  0  0  0  0
   12.4329   -4.2159   24.4224 C   0  0  0  0  0  0  0  0  0  0  0  0
    3.4740   -9.0387   16.5022 C   0  0  0  0  0  0  0  0  0  0  0  0
    6.8384   -7.9290   17.5282 N   0  0  0  0  0  0  0  0  0  0  0  0
    9.4126   -5.9853   18.4899 C   0  0  0  0  0  0  0  0  0  0  0  0
    4.2064  -10.3242   18.3302 C   0  0  0  0  0  0  0  0  0  0  0  0
    9.6599   -4.1551   16.4796 N   0  0  0  0  0  0  0  0  0  0  0  0
    7.0644   -6.4612   15.7375 N   0  0  0  0  0  0  0  0  0  0  0  0
    5.3549   -9.6322   18.3190 C   0  0  0  0  0  0  0  0  0  0  0  0
   10.3704   -4.9638   18.6510 C   0  0  0  0  0  0  0  0  0  0  0  0
    5.5935   -8.6419   17.4234 C   0  0  0  0  0  0  0  0  0  0  0  0
   13.0726   -4.6648   23.3394 O   0  0  0  0  0  0  0  0  0  0  0  0
    8.5955   -6.0705   17.3996 C   0  0  0  0  0  0  0  0  0  0  0  0
    4.6223   -8.3832   16.5030 C   0  0  0  0  0  0  0  0  0  0  0  0
   12.4690   -5.2624   19.9024 C   0  0  0  0  0  0  0  0  0  0  0  0
    3.2548   -9.9919   17.4189 C   0  0  0  0  0  0  0  0  0  0  0  0
   12.4767   -4.7393   22.1790 C   0  0  0  0  0  0  0  0  0  0  0  0
    7.8593   -5.3772   15.3569 N   0  0  0  0  0  0  0  0  0  0  0  0
    7.4412   -6.9038   16.9283 C   0  0  0  0  0  0  0  0  0  0  0  0
  1 21  4  0
  1 23  4  0
  2  5  1  0
  2 13  4  0
  2 16  4  0
  3  6  4  0
  3  7  4  0
  4 13  4  0
  4 19  4  0
  4 24  4  0
  6 23  4  0
  7 16  1  0
  7 21  4  0
  8 18  1  0
  9 20  4  0
  9 22  4  0
 10 17  1  0
 10 25  1  0
 11 16  4  0
 11 19  4  0
 12 15  4  0
 12 22  4  0
 14 24  4  0
 14 25  4  0
 15 17  4  0
 17 20  4  0
 18 23  1  0
 19 25  4  0
M  END
$$$$

 Created by Python create_sdf_string function

 25 28  0  0  0  0  0  0  0  0999 V2000
   13.1533   -5.2399   21.0682 C   0  0  0  0  0  0  0  0  0  0  0  0
   10.4729   -4.0295   17.6135 C   0  0  0  0  0  0  0  0  0  0  0  0
   10.4789   -4.3641   20.9564 C   0  0  0  0  0  0  0  0  0  0  0  0
    8.7421   -5.1412   16.3650 C   0  0  0  0  0  0  0  0  0  0  0  0
   11.4353   -2.9204   17.8044 C   0  0  0  0  0  0  0  0  0  0  0  0
   11.1529   -4.3028   22.1277 C   0  0  0  0  0  0  0  0  0  0  0  0
   11.1290   -4.8502   19.8052 C   0  0  0  0  0  0  0  0  0  0  0  0
   12.4329   -4.2159   24.4224 C   0  0  0  0  0  0  0  0  0  0  0  0
    3.4740   -9.0387   16.5022 C   0  0  0  0  0  0  0  0  0  0  0  0
    6.8384   -7.9290   17.5282 N   0  0  0  0  0  0  0  0  0  0  0  0
    9.4126   -5.9853   18.4899 C   0  0  0  0  0  0  0  0  0  0  0  0
    4.2064  -10.3242   18.3302 C   0  0  0  0  0  0  0  0  0  0  0  0
    9.6599   -4.1551   16.4796 N   0  0  0  0  0  0  0  0  0  0  0  0
    7.0644   -6.4612   15.7375 N   0  0  0  0  0  0  0  0  0  0  0  0
    5.3549   -9.6322   18.3190 C   0  0  0  0  0  0  0  0  0  0  0  0
   10.3704   -4.9638   18.6510 C   0  0  0  0  0  0  0  0  0  0  0  0
    5.5935   -8.6419   17.4234 C   0  0  0  0  0  0  0  0  0  0  0  0
   13.0726   -4.6648   23.3394 O   0  0  0  0  0  0  0  0  0  0  0  0
    8.5955   -6.0705   17.3996 C   0  0  0  0  0  0  0  0  0  0  0  0
    4.6223   -8.3832   16.5030 C   0  0  0  0  0  0  0  0  0  0  0  0
   12.4690   -5.2624   19.9024 C   0  0  0  0  0  0  0  0  0  0  0  0
    3.2548   -9.9919   17.4189 C   0  0  0  0  0  0  0  0  0  0  0  0
   12.4767   -4.7393   22.1790 C   0  0  0  0  0  0  0  0  0  0  0  0
    7.8593   -5.3772   15.3569 N   0  0  0  0  0  0  0  0  0  0  0  0
    7.4412   -6.9038   16.9283 C   0  0  0  0  0  0  0  0  0  0  0  0
  1 21  4  0
  1 23  4  0
  2  5  1  0
  2 13  4  0
  2 16  4  0
  3  6  4  0
  3  7  4  0
  4 13  4  0
  4 19  4  0
  4 24  4  0
  6 23  4  0
  7 16  1  0
  7 21  4  0
  8 18  1  0
  9 20  4  0
  9 22  4  0
 10 17  1  0
 10 25  1  0
 11 16  4  0
 11 19  4  0
 12 15  4  0
 12 22  4  0
 14 24  4  0
 14 25  4  0
 15 17  4  0
 17 20  4  0
 18 23  1  0
 19 25  4  0
M  END
$$$$

 Created by Python create_sdf_string function

 25 28  0  0  0  0  0  0  0  0999 V2000
   13.1533   -5.2399   21.0682 C   0  0  0  0  0  0  0  0  0  0  0  0
   10.4729   -4.0295   17.6135 C   0  0  0  0  0  0  0  0  0  0  0  0
   10.4789   -4.3641   20.9564 C   0  0  0  0  0  0  0  0  0  0  0  0
    8.7421   -5.1412   16.3650 C   0  0  0  0  0  0  0  0  0  0  0  0
   11.4353   -2.9204   17.8044 C   0  0  0  0  0  0  0  0  0  0  0  0
   11.1529   -4.3028   22.1277 C   0  0  0  0  0  0  0  0  0  0  0  0
   11.1290   -4.8502   19.8052 C   0  0  0  0  0  0  0  0  0  0  0  0
   12.4329   -4.2159   24.4224 C   0  0  0  0  0  0  0  0  0  0  0  0
    3.4740   -9.0387   16.5022 C   0  0  0  0  0  0  0  0  0  0  0  0
    6.8384   -7.9290   17.5282 N   0  0  0  0  0  0  0  0  0  0  0  0
    9.4126   -5.9853   18.4899 C   0  0  0  0  0  0  0  0  0  0  0  0
    4.2064  -10.3242   18.3302 C   0  0  0  0  0  0  0  0  0  0  0  0
    9.6599   -4.1551   16.4796 N   0  0  0  0  0  0  0  0  0  0  0  0
    7.0644   -6.4612   15.7375 N   0  0  0  0  0  0  0  0  0  0  0  0
    5.3549   -9.6322   18.3190 C   0  0  0  0  0  0  0  0  0  0  0  0
   10.3704   -4.9638   18.6510 C   0  0  0  0  0  0  0  0  0  0  0  0
    5.5935   -8.6419   17.4234 C   0  0  0  0  0  0  0  0  0  0  0  0
   13.0726   -4.6648   23.3394 O   0  0  0  0  0  0  0  0  0  0  0  0
    8.5955   -6.0705   17.3996 C   0  0  0  0  0  0  0  0  0  0  0  0
    4.6223   -8.3832   16.5030 C   0  0  0  0  0  0  0  0  0  0  0  0
   12.4690   -5.2624   19.9024 C   0  0  0  0  0  0  0  0  0  0  0  0
    3.2548   -9.9919   17.4189 C   0  0  0  0  0  0  0  0  0  0  0  0
   12.4767   -4.7393   22.1790 C   0  0  0  0  0  0  0  0  0  0  0  0
    7.8593   -5.3772   15.3569 N   0  0  0  0  0  0  0  0  0  0  0  0
    7.4412   -6.9038   16.9283 C   0  0  0  0  0  0  0  0  0  0  0  0
  1 21  4  0
  1 23  4  0
  2  5  1  0
  2 13  4  0
  2 16  4  0
  3  6  4  0
  3  7  4  0
  4 13  4  0
  4 19  4  0
  4 24  4  0
  6 23  4  0
  7 16  1  0
  7 21  4  0
  8 18  1  0
  9 20  4  0
  9 22  4  0
 10 17  1  0
 10 25  1  0
 11 16  4  0
 11 19  4  0
 12 15  4  0
 12 22  4  0
 14 24  4  0
 14 25  4  0
 15 17  4  0
 17 20  4  0
 18 23  1  0
 19 25  4  0
M  END
$$$$

 Created by Python create_sdf_string function

 25 28  0  0  0  0  0  0  0  0999 V2000
   13.1533   -5.2399   21.0682 C   0  0  0  0  0  0  0  0  0  0  0  0
   10.4729   -4.0295   17.6135 C   0  0  0  0  0  0  0  0  0  0  0  0
   10.4789   -4.3641   20.9564 C   0  0  0  0  0  0  0  0  0  0  0  0
    8.7421   -5.1412   16.3650 C   0  0  0  0  0  0  0  0  0  0  0  0
   11.4353   -2.9204   17.8044 C   0  0  0  0  0  0  0  0  0  0  0  0
   11.1529   -4.3028   22.1277 C   0  0  0  0  0  0  0  0  0  0  0  0
   11.1290   -4.8502   19.8052 C   0  0  0  0  0  0  0  0  0  0  0  0
   12.4329   -4.2159   24.4224 C   0  0  0  0  0  0  0  0  0  0  0  0
    3.4740   -9.0387   16.5022 C   0  0  0  0  0  0  0  0  0  0  0  0
    6.8384   -7.9290   17.5282 N   0  0  0  0  0  0  0  0  0  0  0  0
    9.4126   -5.9853   18.4899 C   0  0  0  0  0  0  0  0  0  0  0  0
    4.2064  -10.3242   18.3302 C   0  0  0  0  0  0  0  0  0  0  0  0
    9.6599   -4.1551   16.4796 N   0  0  0  0  0  0  0  0  0  0  0  0
    7.0644   -6.4612   15.7375 N   0  0  0  0  0  0  0  0  0  0  0  0
    5.3549   -9.6322   18.3190 C   0  0  0  0  0  0  0  0  0  0  0  0
   10.3704   -4.9638   18.6510 C   0  0  0  0  0  0  0  0  0  0  0  0
    5.5935   -8.6419   17.4234 C   0  0  0  0  0  0  0  0  0  0  0  0
   13.0726   -4.6648   23.3394 O   0  0  0  0  0  0  0  0  0  0  0  0
    8.5955   -6.0705   17.3996 C   0  0  0  0  0  0  0  0  0  0  0  0
    4.6223   -8.3832   16.5030 C   0  0  0  0  0  0  0  0  0  0  0  0
   12.4690   -5.2624   19.9024 C   0  0  0  0  0  0  0  0  0  0  0  0
    3.2548   -9.9919   17.4189 C   0  0  0  0  0  0  0  0  0  0  0  0
   12.4767   -4.7393   22.1790 C   0  0  0  0  0  0  0  0  0  0  0  0
    7.8593   -5.3772   15.3569 N   0  0  0  0  0  0  0  0  0  0  0  0
    7.4412   -6.9038   16.9283 C   0  0  0  0  0  0  0  0  0  0  0  0
  1 21  4  0
  1 23  4  0
  2  5  1  0
  2 13  4  0
  2 16  4  0
  3  6  4  0
  3  7  4  0
  4 13  4  0
  4 19  4  0
  4 24  4  0
  6 23  4  0
  7 16  1  0
  7 21  4  0
  8 18  1  0
  9 20  4  0
  9 22  4  0
 10 17  1  0
 10 25  1  0
 11 16  4  0
 11 19  4  0
 12 15  4  0
 12 22  4  0
 14 24  4  0
 14 25  4  0
 15 17  4  0
 17 20  4  0
 18 23  1  0
 19 25  4  0
M  END
$$$$

 Created by Python create_sdf_string function

 25 28  0  0  0  0  0  0  0  0999 V2000
   13.1533   -5.2399   21.0682 C   0  0  0  0  0  0  0  0  0  0  0  0
   10.4729   -4.0295   17.6135 C   0  0  0  0  0  0  0  0  0  0  0  0
   10.4789   -4.3641   20.9564 C   0  0  0  0  0  0  0  0  0  0  0  0
    8.7421   -5.1412   16.3650 C   0  0  0  0  0  0  0  0  0  0  0  0
   11.4353   -2.9204   17.8044 C   0  0  0  0  0  0  0  0  0  0  0  0
   11.1529   -4.3028   22.1277 C   0  0  0  0  0  0  0  0  0  0  0  0
   11.1290   -4.8502   19.8052 C   0  0  0  0  0  0  0  0  0  0  0  0
   12.4329   -4.2159   24.4224 C   0  0  0  0  0  0  0  0  0  0  0  0
    3.4740   -9.0387   16.5022 C   0  0  0  0  0  0  0  0  0  0  0  0
    6.8384   -7.9290   17.5282 N   0  0  0  0  0  0  0  0  0  0  0  0
    9.4126   -5.9853   18.4899 C   0  0  0  0  0  0  0  0  0  0  0  0
    4.2064  -10.3242   18.3302 C   0  0  0  0  0  0  0  0  0  0  0  0
    9.6599   -4.1551   16.4796 N   0  0  0  0  0  0  0  0  0  0  0  0
    7.0644   -6.4612   15.7375 N   0  0  0  0  0  0  0  0  0  0  0  0
    5.3549   -9.6322   18.3190 C   0  0  0  0  0  0  0  0  0  0  0  0
   10.3704   -4.9638   18.6510 C   0  0  0  0  0  0  0  0  0  0  0  0
    5.5935   -8.6419   17.4234 C   0  0  0  0  0  0  0  0  0  0  0  0
   13.0726   -4.6648   23.3394 O   0  0  0  0  0  0  0  0  0  0  0  0
    8.5955   -6.0705   17.3996 C   0  0  0  0  0  0  0  0  0  0  0  0
    4.6223   -8.3832   16.5030 C   0  0  0  0  0  0  0  0  0  0  0  0
   12.4690   -5.2624   19.9024 C   0  0  0  0  0  0  0  0  0  0  0  0
    3.2548   -9.9919   17.4189 C   0  0  0  0  0  0  0  0  0  0  0  0
   12.4767   -4.7393   22.1790 C   0  0  0  0  0  0  0  0  0  0  0  0
    7.8593   -5.3772   15.3569 N   0  0  0  0  0  0  0  0  0  0  0  0
    7.4412   -6.9038   16.9283 C   0  0  0  0  0  0  0  0  0  0  0  0
  1 21  4  0
  1 23  4  0
  2  5  1  0
  2 13  4  0
  2 16  4  0
  3  6  4  0
  3  7  4  0
  4 13  4  0
  4 19  4  0
  4 24  4  0
  6 23  4  0
  7 16  1  0
  7 21  4  0
  8 18  1  0
  9 20  4  0
  9 22  4  0
 10 17  1  0
 10 25  1  0
 11 16  4  0
 11 19  4  0
 12 15  4  0
 12 22  4  0
 14 24  4  0
 14 25  4  0
 15 17  4  0
 17 20  4  0
 18 23  1  0
 19 25  4  0
M  END
$$$$

 Created by Python create_sdf_string function

 25 28  0  0  0  0  0  0  0  0999 V2000
   13.1533   -5.2399   21.0682 C   0  0  0  0  0  0  0  0  0  0  0  0
   10.4729   -4.0295   17.6135 C   0  0  0  0  0  0  0  0  0  0  0  0
   10.4789   -4.3641   20.9564 C   0  0  0  0  0  0  0  0  0  0  0  0
    8.7421   -5.1412   16.3650 C   0  0  0  0  0  0  0  0  0  0  0  0
   11.4353   -2.9204   17.8044 C   0  0  0  0  0  0  0  0  0  0  0  0
   11.1529   -4.3028   22.1277 C   0  0  0  0  0  0  0  0  0  0  0  0
   11.1290   -4.8502   19.8052 C   0  0  0  0  0  0  0  0  0  0  0  0
   12.4329   -4.2159   24.4224 C   0  0  0  0  0  0  0  0  0  0  0  0
    3.4740   -9.0387   16.5022 C   0  0  0  0  0  0  0  0  0  0  0  0
    6.8384   -7.9290   17.5282 N   0  0  0  0  0  0  0  0  0  0  0  0
    9.4126   -5.9853   18.4899 C   0  0  0  0  0  0  0  0  0  0  0  0
    4.2064  -10.3242   18.3302 C   0  0  0  0  0  0  0  0  0  0  0  0
    9.6599   -4.1551   16.4796 N   0  0  0  0  0  0  0  0  0  0  0  0
    7.0644   -6.4612   15.7375 N   0  0  0  0  0  0  0  0  0  0  0  0
    5.3549   -9.6322   18.3190 C   0  0  0  0  0  0  0  0  0  0  0  0
   10.3704   -4.9638   18.6510 C   0  0  0  0  0  0  0  0  0  0  0  0
    5.5935   -8.6419   17.4234 C   0  0  0  0  0  0  0  0  0  0  0  0
   13.0726   -4.6648   23.3394 O   0  0  0  0  0  0  0  0  0  0  0  0
    8.5955   -6.0705   17.3996 C   0  0  0  0  0  0  0  0  0  0  0  0
    4.6223   -8.3832   16.5030 C   0  0  0  0  0  0  0  0  0  0  0  0
   12.4690   -5.2624   19.9024 C   0  0  0  0  0  0  0  0  0  0  0  0
    3.2548   -9.9919   17.4189 C   0  0  0  0  0  0  0  0  0  0  0  0
   12.4767   -4.7393   22.1790 C   0  0  0  0  0  0  0  0  0  0  0  0
    7.8593   -5.3772   15.3569 N   0  0  0  0  0  0  0  0  0  0  0  0
    7.4412   -6.9038   16.9283 C   0  0  0  0  0  0  0  0  0  0  0  0
  1 21  4  0
  1 23  4  0
  2  5  1  0
  2 13  4  0
  2 16  4  0
  3  6  4  0
  3  7  4  0
  4 13  4  0
  4 19  4  0
  4 24  4  0
  6 23  4  0
  7 16  1  0
  7 21  4  0
  8 18  1  0
  9 20  4  0
  9 22  4  0
 10 17  1  0
 10 25  1  0
 11 16  4  0
 11 19  4  0
 12 15  4  0
 12 22  4  0
 14 24  4  0
 14 25  4  0
 15 17  4  0
 17 20  4  0
 18 23  1  0
 19 25  4  0
M  END
$$$$

 Created by Python create_sdf_string function

 25 28  0  0  0  0  0  0  0  0999 V2000
   13.1533   -5.2399   21.0682 C   0  0  0  0  0  0  0  0  0  0  0  0
   10.4729   -4.0295   17.6135 C   0  0  0  0  0  0  0  0  0  0  0  0
   10.4789   -4.3641   20.9564 C   0  0  0  0  0  0  0  0  0  0  0  0
    8.7421   -5.1412   16.3650 C   0  0  0  0  0  0  0  0  0  0  0  0
   11.4353   -2.9204   17.8044 C   0  0  0  0  0  0  0  0  0  0  0  0
   11.1529   -4.3028   22.1277 C   0  0  0  0  0  0  0  0  0  0  0  0
   11.1290   -4.8502   19.8052 C   0  0  0  0  0  0  0  0  0  0  0  0
   12.4329   -4.2159   24.4224 C   0  0  0  0  0  0  0  0  0  0  0  0
    3.4740   -9.0387   16.5022 C   0  0  0  0  0  0  0  0  0  0  0  0
    6.8384   -7.9290   17.5282 N   0  0  0  0  0  0  0  0  0  0  0  0
    9.4126   -5.9853   18.4899 C   0  0  0  0  0  0  0  0  0  0  0  0
    4.2064  -10.3242   18.3302 C   0  0  0  0  0  0  0  0  0  0  0  0
    9.6599   -4.1551   16.4796 N   0  0  0  0  0  0  0  0  0  0  0  0
    7.0644   -6.4612   15.7375 N   0  0  0  0  0  0  0  0  0  0  0  0
    5.3549   -9.6322   18.3190 C   0  0  0  0  0  0  0  0  0  0  0  0
   10.3704   -4.9638   18.6510 C   0  0  0  0  0  0  0  0  0  0  0  0
    5.5935   -8.6419   17.4234 C   0  0  0  0  0  0  0  0  0  0  0  0
   13.0726   -4.6648   23.3394 O   0  0  0  0  0  0  0  0  0  0  0  0
    8.5955   -6.0705   17.3996 C   0  0  0  0  0  0  0  0  0  0  0  0
    4.6223   -8.3832   16.5030 C   0  0  0  0  0  0  0  0  0  0  0  0
   12.4690   -5.2624   19.9024 C   0  0  0  0  0  0  0  0  0  0  0  0
    3.2548   -9.9919   17.4189 C   0  0  0  0  0  0  0  0  0  0  0  0
   12.4767   -4.7393   22.1790 C   0  0  0  0  0  0  0  0  0  0  0  0
    7.8593   -5.3772   15.3569 N   0  0  0  0  0  0  0  0  0  0  0  0
    7.4412   -6.9038   16.9283 C   0  0  0  0  0  0  0  0  0  0  0  0
  1 21  4  0
  1 23  4  0
  2  5  1  0
  2 13  4  0
  2 16  4  0
  3  6  4  0
  3  7  4  0
  4 13  4  0
  4 19  4  0
  4 24  4  0
  6 23  4  0
  7 16  1  0
  7 21  4  0
  8 18  1  0
  9 20  4  0
  9 22  4  0
 10 17  1  0
 10 25  1  0
 11 16  4  0
 11 19  4  0
 12 15  4  0
 12 22  4  0
 14 24  4  0
 14 25  4  0
 15 17  4  0
 17 20  4  0
 18 23  1  0
 19 25  4  0
M  END
$$$$

 Created by Python create_sdf_string function

 25 28  0  0  0  0  0  0  0  0999 V2000
   13.1533   -5.2399   21.0682 C   0  0  0  0  0  0  0  0  0  0  0  0
   10.4729   -4.0295   17.6135 C   0  0  0  0  0  0  0  0  0  0  0  0
   10.4789   -4.3641   20.9564 C   0  0  0  0  0  0  0  0  0  0  0  0
    8.7421   -5.1412   16.3650 C   0  0  0  0  0  0  0  0  0  0  0  0
   11.4353   -2.9204   17.8044 C   0  0  0  0  0  0  0  0  0  0  0  0
   11.1529   -4.3028   22.1277 C   0  0  0  0  0  0  0  0  0  0  0  0
   11.1290   -4.8502   19.8052 C   0  0  0  0  0  0  0  0  0  0  0  0
   12.4329   -4.2159   24.4224 C   0  0  0  0  0  0  0  0  0  0  0  0
    3.4740   -9.0387   16.5022 C   0  0  0  0  0  0  0  0  0  0  0  0
    6.8384   -7.9290   17.5282 N   0  0  0  0  0  0  0  0  0  0  0  0
    9.4126   -5.9853   18.4899 C   0  0  0  0  0  0  0  0  0  0  0  0
    4.2064  -10.3242   18.3302 C   0  0  0  0  0  0  0  0  0  0  0  0
    9.6599   -4.1551   16.4796 N   0  0  0  0  0  0  0  0  0  0  0  0
    7.0644   -6.4612   15.7375 N   0  0  0  0  0  0  0  0  0  0  0  0
    5.3549   -9.6322   18.3190 C   0  0  0  0  0  0  0  0  0  0  0  0
   10.3704   -4.9638   18.6510 C   0  0  0  0  0  0  0  0  0  0  0  0
    5.5935   -8.6419   17.4234 C   0  0  0  0  0  0  0  0  0  0  0  0
   13.0726   -4.6648   23.3394 O   0  0  0  0  0  0  0  0  0  0  0  0
    8.5955   -6.0705   17.3996 C   0  0  0  0  0  0  0  0  0  0  0  0
    4.6223   -8.3832   16.5030 C   0  0  0  0  0  0  0  0  0  0  0  0
   12.4690   -5.2624   19.9024 C   0  0  0  0  0  0  0  0  0  0  0  0
    3.2548   -9.9919   17.4189 C   0  0  0  0  0  0  0  0  0  0  0  0
   12.4767   -4.7393   22.1790 C   0  0  0  0  0  0  0  0  0  0  0  0
    7.8593   -5.3772   15.3569 N   0  0  0  0  0  0  0  0  0  0  0  0
    7.4412   -6.9038   16.9283 C   0  0  0  0  0  0  0  0  0  0  0  0
  1 21  4  0
  1 23  4  0
  2  5  1  0
  2 13  4  0
  2 16  4  0
  3  6  4  0
  3  7  4  0
  4 13  4  0
  4 19  4  0
  4 24  4  0
  6 23  4  0
  7 16  1  0
  7 21  4  0
  8 18  1  0
  9 20  4  0
  9 22  4  0
 10 17  1  0
 10 25  1  0
 11 16  4  0
 11 19  4  0
 12 15  4  0
 12 22  4  0
 14 24  4  0
 14 25  4  0
 15 17  4  0
 17 20  4  0
 18 23  1  0
 19 25  4  0
M  END
$$$$

 Created by Python create_sdf_string function

 25 28  0  0  0  0  0  0  0  0999 V2000
   13.1533   -5.2399   21.0682 C   0  0  0  0  0  0  0  0  0  0  0  0
   10.4729   -4.0295   17.6135 C   0  0  0  0  0  0  0  0  0  0  0  0
   10.4789   -4.3641   20.9564 C   0  0  0  0  0  0  0  0  0  0  0  0
    8.7421   -5.1412   16.3650 C   0  0  0  0  0  0  0  0  0  0  0  0
   11.4353   -2.9204   17.8044 C   0  0  0  0  0  0  0  0  0  0  0  0
   11.1529   -4.3028   22.1277 C   0  0  0  0  0  0  0  0  0  0  0  0
   11.1290   -4.8502   19.8052 C   0  0  0  0  0  0  0  0  0  0  0  0
   12.4329   -4.2159   24.4224 C   0  0  0  0  0  0  0  0  0  0  0  0
    3.4740   -9.0387   16.5022 C   0  0  0  0  0  0  0  0  0  0  0  0
    6.8384   -7.9290   17.5282 N   0  0  0  0  0  0  0  0  0  0  0  0
    9.4126   -5.9853   18.4899 C   0  0  0  0  0  0  0  0  0  0  0  0
    4.2064  -10.3242   18.3302 C   0  0  0  0  0  0  0  0  0  0  0  0
    9.6599   -4.1551   16.4796 N   0  0  0  0  0  0  0  0  0  0  0  0
    7.0644   -6.4612   15.7375 N   0  0  0  0  0  0  0  0  0  0  0  0
    5.3549   -9.6322   18.3190 C   0  0  0  0  0  0  0  0  0  0  0  0
   10.3704   -4.9638   18.6510 C   0  0  0  0  0  0  0  0  0  0  0  0
    5.5935   -8.6419   17.4234 C   0  0  0  0  0  0  0  0  0  0  0  0
   13.0726   -4.6648   23.3394 O   0  0  0  0  0  0  0  0  0  0  0  0
    8.5955   -6.0705   17.3996 C   0  0  0  0  0  0  0  0  0  0  0  0
    4.6223   -8.3832   16.5030 C   0  0  0  0  0  0  0  0  0  0  0  0
   12.4690   -5.2624   19.9024 C   0  0  0  0  0  0  0  0  0  0  0  0
    3.2548   -9.9919   17.4189 C   0  0  0  0  0  0  0  0  0  0  0  0
   12.4767   -4.7393   22.1790 C   0  0  0  0  0  0  0  0  0  0  0  0
    7.8593   -5.3772   15.3569 N   0  0  0  0  0  0  0  0  0  0  0  0
    7.4412   -6.9038   16.9283 C   0  0  0  0  0  0  0  0  0  0  0  0
  1 21  4  0
  1 23  4  0
  2  5  1  0
  2 13  4  0
  2 16  4  0
  3  6  4  0
  3  7  4  0
  4 13  4  0
  4 19  4  0
  4 24  4  0
  6 23  4  0
  7 16  1  0
  7 21  4  0
  8 18  1  0
  9 20  4  0
  9 22  4  0
 10 17  1  0
 10 25  1  0
 11 16  4  0
 11 19  4  0
 12 15  4  0
 12 22  4  0
 14 24  4  0
 14 25  4  0
 15 17  4  0
 17 20  4  0
 18 23  1  0
 19 25  4  0
M  END
$$$$

 Created by Python create_sdf_string function

 25 28  0  0  0  0  0  0  0  0999 V2000
   13.1533   -5.2399   21.0682 C   0  0  0  0  0  0  0  0  0  0  0  0
   10.4729   -4.0295   17.6135 C   0  0  0  0  0  0  0  0  0  0  0  0
   10.4789   -4.3641   20.9564 C   0  0  0  0  0  0  0  0  0  0  0  0
    8.7421   -5.1412   16.3650 C   0  0  0  0  0  0  0  0  0  0  0  0
   11.4353   -2.9204   17.8044 C   0  0  0  0  0  0  0  0  0  0  0  0
   11.1529   -4.3028   22.1277 C   0  0  0  0  0  0  0  0  0  0  0  0
   11.1290   -4.8502   19.8052 C   0  0  0  0  0  0  0  0  0  0  0  0
   12.4329   -4.2159   24.4224 C   0  0  0  0  0  0  0  0  0  0  0  0
    3.4740   -9.0387   16.5022 C   0  0  0  0  0  0  0  0  0  0  0  0
    6.8384   -7.9290   17.5282 N   0  0  0  0  0  0  0  0  0  0  0  0
    9.4126   -5.9853   18.4899 C   0  0  0  0  0  0  0  0  0  0  0  0
    4.2064  -10.3242   18.3302 C   0  0  0  0  0  0  0  0  0  0  0  0
    9.6599   -4.1551   16.4796 N   0  0  0  0  0  0  0  0  0  0  0  0
    7.0644   -6.4612   15.7375 N   0  0  0  0  0  0  0  0  0  0  0  0
    5.3549   -9.6322   18.3190 C   0  0  0  0  0  0  0  0  0  0  0  0
   10.3704   -4.9638   18.6510 C   0  0  0  0  0  0  0  0  0  0  0  0
    5.5935   -8.6419   17.4234 C   0  0  0  0  0  0  0  0  0  0  0  0
   13.0726   -4.6648   23.3394 O   0  0  0  0  0  0  0  0  0  0  0  0
    8.5955   -6.0705   17.3996 C   0  0  0  0  0  0  0  0  0  0  0  0
    4.6223   -8.3832   16.5030 C   0  0  0  0  0  0  0  0  0  0  0  0
   12.4690   -5.2624   19.9024 C   0  0  0  0  0  0  0  0  0  0  0  0
    3.2548   -9.9919   17.4189 C   0  0  0  0  0  0  0  0  0  0  0  0
   12.4767   -4.7393   22.1790 C   0  0  0  0  0  0  0  0  0  0  0  0
    7.8593   -5.3772   15.3569 N   0  0  0  0  0  0  0  0  0  0  0  0
    7.4412   -6.9038   16.9283 C   0  0  0  0  0  0  0  0  0  0  0  0
  1 21  4  0
  1 23  4  0
  2  5  1  0
  2 13  4  0
  2 16  4  0
  3  6  4  0
  3  7  4  0
  4 13  4  0
  4 19  4  0
  4 24  4  0
  6 23  4  0
  7 16  1  0
  7 21  4  0
  8 18  1  0
  9 20  4  0
  9 22  4  0
 10 17  1  0
 10 25  1  0
 11 16  4  0
 11 19  4  0
 12 15  4  0
 12 22  4  0
 14 24  4  0
 14 25  4  0
 15 17  4  0
 17 20  4  0
 18 23  1  0
 19 25  4  0
M  END
$$$$

 Created by Python create_sdf_string function

 25 28  0  0  0  0  0  0  0  0999 V2000
   13.1533   -5.2399   21.0682 C   0  0  0  0  0  0  0  0  0  0  0  0
   10.4729   -4.0295   17.6135 C   0  0  0  0  0  0  0  0  0  0  0  0
   10.4789   -4.3641   20.9564 C   0  0  0  0  0  0  0  0  0  0  0  0
    8.7421   -5.1412   16.3650 C   0  0  0  0  0  0  0  0  0  0  0  0
   11.4353   -2.9204   17.8044 C   0  0  0  0  0  0  0  0  0  0  0  0
   11.1529   -4.3028   22.1277 C   0  0  0  0  0  0  0  0  0  0  0  0
   11.1290   -4.8502   19.8052 C   0  0  0  0  0  0  0  0  0  0  0  0
   12.4329   -4.2159   24.4224 C   0  0  0  0  0  0  0  0  0  0  0  0
    3.4740   -9.0387   16.5022 C   0  0  0  0  0  0  0  0  0  0  0  0
    6.8384   -7.9290   17.5282 N   0  0  0  0  0  0  0  0  0  0  0  0
    9.4126   -5.9853   18.4899 C   0  0  0  0  0  0  0  0  0  0  0  0
    4.2064  -10.3242   18.3302 C   0  0  0  0  0  0  0  0  0  0  0  0
    9.6599   -4.1551   16.4796 N   0  0  0  0  0  0  0  0  0  0  0  0
    7.0644   -6.4612   15.7375 N   0  0  0  0  0  0  0  0  0  0  0  0
    5.3549   -9.6322   18.3190 C   0  0  0  0  0  0  0  0  0  0  0  0
   10.3704   -4.9638   18.6510 C   0  0  0  0  0  0  0  0  0  0  0  0
    5.5935   -8.6419   17.4234 C   0  0  0  0  0  0  0  0  0  0  0  0
   13.0726   -4.6648   23.3394 O   0  0  0  0  0  0  0  0  0  0  0  0
    8.5955   -6.0705   17.3996 C   0  0  0  0  0  0  0  0  0  0  0  0
    4.6223   -8.3832   16.5030 C   0  0  0  0  0  0  0  0  0  0  0  0
   12.4690   -5.2624   19.9024 C   0  0  0  0  0  0  0  0  0  0  0  0
    3.2548   -9.9919   17.4189 C   0  0  0  0  0  0  0  0  0  0  0  0
   12.4767   -4.7393   22.1790 C   0  0  0  0  0  0  0  0  0  0  0  0
    7.8593   -5.3772   15.3569 N   0  0  0  0  0  0  0  0  0  0  0  0
    7.4412   -6.9038   16.9283 C   0  0  0  0  0  0  0  0  0  0  0  0
  1 21  4  0
  1 23  4  0
  2  5  1  0
  2 13  4  0
  2 16  4  0
  3  6  4  0
  3  7  4  0
  4 13  4  0
  4 19  4  0
  4 24  4  0
  6 23  4  0
  7 16  1  0
  7 21  4  0
  8 18  1  0
  9 20  4  0
  9 22  4  0
 10 17  1  0
 10 25  1  0
 11 16  4  0
 11 19  4  0
 12 15  4  0
 12 22  4  0
 14 24  4  0
 14 25  4  0
 15 17  4  0
 17 20  4  0
 18 23  1  0
 19 25  4  0
M  END
$$$$

 Created by Python create_sdf_string function

 25 28  0  0  0  0  0  0  0  0999 V2000
   13.1533   -5.2399   21.0682 C   0  0  0  0  0  0  0  0  0  0  0  0
   10.4729   -4.0295   17.6135 C   0  0  0  0  0  0  0  0  0  0  0  0
   10.4789   -4.3641   20.9564 C   0  0  0  0  0  0  0  0  0  0  0  0
    8.7421   -5.1412   16.3650 C   0  0  0  0  0  0  0  0  0  0  0  0
   11.4353   -2.9204   17.8044 C   0  0  0  0  0  0  0  0  0  0  0  0
   11.1529   -4.3028   22.1277 C   0  0  0  0  0  0  0  0  0  0  0  0
   11.1290   -4.8502   19.8052 C   0  0  0  0  0  0  0  0  0  0  0  0
   12.4329   -4.2159   24.4224 C   0  0  0  0  0  0  0  0  0  0  0  0
    3.4740   -9.0387   16.5022 C   0  0  0  0  0  0  0  0  0  0  0  0
    6.8384   -7.9290   17.5282 N   0  0  0  0  0  0  0  0  0  0  0  0
    9.4126   -5.9853   18.4899 C   0  0  0  0  0  0  0  0  0  0  0  0
    4.2064  -10.3242   18.3302 C   0  0  0  0  0  0  0  0  0  0  0  0
    9.6599   -4.1551   16.4796 N   0  0  0  0  0  0  0  0  0  0  0  0
    7.0644   -6.4612   15.7375 N   0  0  0  0  0  0  0  0  0  0  0  0
    5.3549   -9.6322   18.3190 C   0  0  0  0  0  0  0  0  0  0  0  0
   10.3704   -4.9638   18.6510 C   0  0  0  0  0  0  0  0  0  0  0  0
    5.5935   -8.6419   17.4234 C   0  0  0  0  0  0  0  0  0  0  0  0
   13.0726   -4.6648   23.3394 O   0  0  0  0  0  0  0  0  0  0  0  0
    8.5955   -6.0705   17.3996 C   0  0  0  0  0  0  0  0  0  0  0  0
    4.6223   -8.3832   16.5030 C   0  0  0  0  0  0  0  0  0  0  0  0
   12.4690   -5.2624   19.9024 C   0  0  0  0  0  0  0  0  0  0  0  0
    3.2548   -9.9919   17.4189 C   0  0  0  0  0  0  0  0  0  0  0  0
   12.4767   -4.7393   22.1790 C   0  0  0  0  0  0  0  0  0  0  0  0
    7.8593   -5.3772   15.3569 N   0  0  0  0  0  0  0  0  0  0  0  0
    7.4412   -6.9038   16.9283 C   0  0  0  0  0  0  0  0  0  0  0  0
  1 21  4  0
  1 23  4  0
  2  5  1  0
  2 13  4  0
  2 16  4  0
  3  6  4  0
  3  7  4  0
  4 13  4  0
  4 19  4  0
  4 24  4  0
  6 23  4  0
  7 16  1  0
  7 21  4  0
  8 18  1  0
  9 20  4  0
  9 22  4  0
 10 17  1  0
 10 25  1  0
 11 16  4  0
 11 19  4  0
 12 15  4  0
 12 22  4  0
 14 24  4  0
 14 25  4  0
 15 17  4  0
 17 20  4  0
 18 23  1  0
 19 25  4  0
M  END
$$$$

 Created by Python create_sdf_string function

 25 28  0  0  0  0  0  0  0  0999 V2000
   13.1533   -5.2399   21.0682 C   0  0  0  0  0  0  0  0  0  0  0  0
   10.4729   -4.0295   17.6135 C   0  0  0  0  0  0  0  0  0  0  0  0
   10.4789   -4.3641   20.9564 C   0  0  0  0  0  0  0  0  0  0  0  0
    8.7421   -5.1412   16.3650 C   0  0  0  0  0  0  0  0  0  0  0  0
   11.4353   -2.9204   17.8044 C   0  0  0  0  0  0  0  0  0  0  0  0
   11.1529   -4.3028   22.1277 C   0  0  0  0  0  0  0  0  0  0  0  0
   11.1290   -4.8502   19.8052 C   0  0  0  0  0  0  0  0  0  0  0  0
   12.4329   -4.2159   24.4224 C   0  0  0  0  0  0  0  0  0  0  0  0
    3.4740   -9.0387   16.5022 C   0  0  0  0  0  0  0  0  0  0  0  0
    6.8384   -7.9290   17.5282 N   0  0  0  0  0  0  0  0  0  0  0  0
    9.4126   -5.9853   18.4899 C   0  0  0  0  0  0  0  0  0  0  0  0
    4.2064  -10.3242   18.3302 C   0  0  0  0  0  0  0  0  0  0  0  0
    9.6599   -4.1551   16.4796 N   0  0  0  0  0  0  0  0  0  0  0  0
    7.0644   -6.4612   15.7375 N   0  0  0  0  0  0  0  0  0  0  0  0
    5.3549   -9.6322   18.3190 C   0  0  0  0  0  0  0  0  0  0  0  0
   10.3704   -4.9638   18.6510 C   0  0  0  0  0  0  0  0  0  0  0  0
    5.5935   -8.6419   17.4234 C   0  0  0  0  0  0  0  0  0  0  0  0
   13.0726   -4.6648   23.3394 O   0  0  0  0  0  0  0  0  0  0  0  0
    8.5955   -6.0705   17.3996 C   0  0  0  0  0  0  0  0  0  0  0  0
    4.6223   -8.3832   16.5030 C   0  0  0  0  0  0  0  0  0  0  0  0
   12.4690   -5.2624   19.9024 C   0  0  0  0  0  0  0  0  0  0  0  0
    3.2548   -9.9919   17.4189 C   0  0  0  0  0  0  0  0  0  0  0  0
   12.4767   -4.7393   22.1790 C   0  0  0  0  0  0  0  0  0  0  0  0
    7.8593   -5.3772   15.3569 N   0  0  0  0  0  0  0  0  0  0  0  0
    7.4412   -6.9038   16.9283 C   0  0  0  0  0  0  0  0  0  0  0  0
  1 21  4  0
  1 23  4  0
  2  5  1  0
  2 13  4  0
  2 16  4  0
  3  6  4  0
  3  7  4  0
  4 13  4  0
  4 19  4  0
  4 24  4  0
  6 23  4  0
  7 16  1  0
  7 21  4  0
  8 18  1  0
  9 20  4  0
  9 22  4  0
 10 17  1  0
 10 25  1  0
 11 16  4  0
 11 19  4  0
 12 15  4  0
 12 22  4  0
 14 24  4  0
 14 25  4  0
 15 17  4  0
 17 20  4  0
 18 23  1  0
 19 25  4  0
M  END
$$$$

 Created by Python create_sdf_string function

 25 28  0  0  0  0  0  0  0  0999 V2000
   13.1533   -5.2399   21.0682 C   0  0  0  0  0  0  0  0  0  0  0  0
   10.4729   -4.0295   17.6135 C   0  0  0  0  0  0  0  0  0  0  0  0
   10.4789   -4.3641   20.9564 C   0  0  0  0  0  0  0  0  0  0  0  0
    8.7421   -5.1412   16.3650 C   0  0  0  0  0  0  0  0  0  0  0  0
   11.4353   -2.9204   17.8044 C   0  0  0  0  0  0  0  0  0  0  0  0
   11.1529   -4.3028   22.1277 C   0  0  0  0  0  0  0  0  0  0  0  0
   11.1290   -4.8502   19.8052 C   0  0  0  0  0  0  0  0  0  0  0  0
   12.4329   -4.2159   24.4224 C   0  0  0  0  0  0  0  0  0  0  0  0
    3.4740   -9.0387   16.5022 C   0  0  0  0  0  0  0  0  0  0  0  0
    6.8384   -7.9290   17.5282 N   0  0  0  0  0  0  0  0  0  0  0  0
    9.4126   -5.9853   18.4899 C   0  0  0  0  0  0  0  0  0  0  0  0
    4.2064  -10.3242   18.3302 C   0  0  0  0  0  0  0  0  0  0  0  0
    9.6599   -4.1551   16.4796 N   0  0  0  0  0  0  0  0  0  0  0  0
    7.0644   -6.4612   15.7375 N   0  0  0  0  0  0  0  0  0  0  0  0
    5.3549   -9.6322   18.3190 C   0  0  0  0  0  0  0  0  0  0  0  0
   10.3704   -4.9638   18.6510 C   0  0  0  0  0  0  0  0  0  0  0  0
    5.5935   -8.6419   17.4234 C   0  0  0  0  0  0  0  0  0  0  0  0
   13.0726   -4.6648   23.3394 O   0  0  0  0  0  0  0  0  0  0  0  0
    8.5955   -6.0705   17.3996 C   0  0  0  0  0  0  0  0  0  0  0  0
    4.6223   -8.3832   16.5030 C   0  0  0  0  0  0  0  0  0  0  0  0
   12.4690   -5.2624   19.9024 C   0  0  0  0  0  0  0  0  0  0  0  0
    3.2548   -9.9919   17.4189 C   0  0  0  0  0  0  0  0  0  0  0  0
   12.4767   -4.7393   22.1790 C   0  0  0  0  0  0  0  0  0  0  0  0
    7.8593   -5.3772   15.3569 N   0  0  0  0  0  0  0  0  0  0  0  0
    7.4412   -6.9038   16.9283 C   0  0  0  0  0  0  0  0  0  0  0  0
  1 21  4  0
  1 23  4  0
  2  5  1  0
  2 13  4  0
  2 16  4  0
  3  6  4  0
  3  7  4  0
  4 13  4  0
  4 19  4  0
  4 24  4  0
  6 23  4  0
  7 16  1  0
  7 21  4  0
  8 18  1  0
  9 20  4  0
  9 22  4  0
 10 17  1  0
 10 25  1  0
 11 16  4  0
 11 19  4  0
 12 15  4  0
 12 22  4  0
 14 24  4  0
 14 25  4  0
 15 17  4  0
 17 20  4  0
 18 23  1  0
 19 25  4  0
M  END
$$$$

 Created by Python create_sdf_string function

 25 28  0  0  0  0  0  0  0  0999 V2000
   13.1533   -5.2399   21.0682 C   0  0  0  0  0  0  0  0  0  0  0  0
   10.4729   -4.0295   17.6135 C   0  0  0  0  0  0  0  0  0  0  0  0
   10.4789   -4.3641   20.9564 C   0  0  0  0  0  0  0  0  0  0  0  0
    8.7421   -5.1412   16.3650 C   0  0  0  0  0  0  0  0  0  0  0  0
   11.4353   -2.9204   17.8044 C   0  0  0  0  0  0  0  0  0  0  0  0
   11.1529   -4.3028   22.1277 C   0  0  0  0  0  0  0  0  0  0  0  0
   11.1290   -4.8502   19.8052 C   0  0  0  0  0  0  0  0  0  0  0  0
   12.4329   -4.2159   24.4224 C   0  0  0  0  0  0  0  0  0  0  0  0
    3.4740   -9.0387   16.5022 C   0  0  0  0  0  0  0  0  0  0  0  0
    6.8384   -7.9290   17.5282 N   0  0  0  0  0  0  0  0  0  0  0  0
    9.4126   -5.9853   18.4899 C   0  0  0  0  0  0  0  0  0  0  0  0
    4.2064  -10.3242   18.3302 C   0  0  0  0  0  0  0  0  0  0  0  0
    9.6599   -4.1551   16.4796 N   0  0  0  0  0  0  0  0  0  0  0  0
    7.0644   -6.4612   15.7375 N   0  0  0  0  0  0  0  0  0  0  0  0
    5.3549   -9.6322   18.3190 C   0  0  0  0  0  0  0  0  0  0  0  0
   10.3704   -4.9638   18.6510 C   0  0  0  0  0  0  0  0  0  0  0  0
    5.5935   -8.6419   17.4234 C   0  0  0  0  0  0  0  0  0  0  0  0
   13.0726   -4.6648   23.3394 O   0  0  0  0  0  0  0  0  0  0  0  0
    8.5955   -6.0705   17.3996 C   0  0  0  0  0  0  0  0  0  0  0  0
    4.6223   -8.3832   16.5030 C   0  0  0  0  0  0  0  0  0  0  0  0
   12.4690   -5.2624   19.9024 C   0  0  0  0  0  0  0  0  0  0  0  0
    3.2548   -9.9919   17.4189 C   0  0  0  0  0  0  0  0  0  0  0  0
   12.4767   -4.7393   22.1790 C   0  0  0  0  0  0  0  0  0  0  0  0
    7.8593   -5.3772   15.3569 N   0  0  0  0  0  0  0  0  0  0  0  0
    7.4412   -6.9038   16.9283 C   0  0  0  0  0  0  0  0  0  0  0  0
  1 21  4  0
  1 23  4  0
  2  5  1  0
  2 13  4  0
  2 16  4  0
  3  6  4  0
  3  7  4  0
  4 13  4  0
  4 19  4  0
  4 24  4  0
  6 23  4  0
  7 16  1  0
  7 21  4  0
  8 18  1  0
  9 20  4  0
  9 22  4  0
 10 17  1  0
 10 25  1  0
 11 16  4  0
 11 19  4  0
 12 15  4  0
 12 22  4  0
 14 24  4  0
 14 25  4  0
 15 17  4  0
 17 20  4  0
 18 23  1  0
 19 25  4  0
M  END
$$$$

 Created by Python create_sdf_string function

 25 28  0  0  0  0  0  0  0  0999 V2000
   13.1533   -5.2399   21.0682 C   0  0  0  0  0  0  0  0  0  0  0  0
   10.4729   -4.0295   17.6135 C   0  0  0  0  0  0  0  0  0  0  0  0
   10.4789   -4.3641   20.9564 C   0  0  0  0  0  0  0  0  0  0  0  0
    8.7421   -5.1412   16.3650 C   0  0  0  0  0  0  0  0  0  0  0  0
   11.4353   -2.9204   17.8044 C   0  0  0  0  0  0  0  0  0  0  0  0
   11.1529   -4.3028   22.1277 C   0  0  0  0  0  0  0  0  0  0  0  0
   11.1290   -4.8502   19.8052 C   0  0  0  0  0  0  0  0  0  0  0  0
   12.4329   -4.2159   24.4224 C   0  0  0  0  0  0  0  0  0  0  0  0
    3.4740   -9.0387   16.5022 C   0  0  0  0  0  0  0  0  0  0  0  0
    6.8384   -7.9290   17.5282 N   0  0  0  0  0  0  0  0  0  0  0  0
    9.4126   -5.9853   18.4899 C   0  0  0  0  0  0  0  0  0  0  0  0
    4.2064  -10.3242   18.3302 C   0  0  0  0  0  0  0  0  0  0  0  0
    9.6599   -4.1551   16.4796 N   0  0  0  0  0  0  0  0  0  0  0  0
    7.0644   -6.4612   15.7375 N   0  0  0  0  0  0  0  0  0  0  0  0
    5.3549   -9.6322   18.3190 C   0  0  0  0  0  0  0  0  0  0  0  0
   10.3704   -4.9638   18.6510 C   0  0  0  0  0  0  0  0  0  0  0  0
    5.5935   -8.6419   17.4234 C   0  0  0  0  0  0  0  0  0  0  0  0
   13.0726   -4.6648   23.3394 O   0  0  0  0  0  0  0  0  0  0  0  0
    8.5955   -6.0705   17.3996 C   0  0  0  0  0  0  0  0  0  0  0  0
    4.6223   -8.3832   16.5030 C   0  0  0  0  0  0  0  0  0  0  0  0
   12.4690   -5.2624   19.9024 C   0  0  0  0  0  0  0  0  0  0  0  0
    3.2548   -9.9919   17.4189 C   0  0  0  0  0  0  0  0  0  0  0  0
   12.4767   -4.7393   22.1790 C   0  0  0  0  0  0  0  0  0  0  0  0
    7.8593   -5.3772   15.3569 N   0  0  0  0  0  0  0  0  0  0  0  0
    7.4412   -6.9038   16.9283 C   0  0  0  0  0  0  0  0  0  0  0  0
  1 21  4  0
  1 23  4  0
  2  5  1  0
  2 13  4  0
  2 16  4  0
  3  6  4  0
  3  7  4  0
  4 13  4  0
  4 19  4  0
  4 24  4  0
  6 23  4  0
  7 16  1  0
  7 21  4  0
  8 18  1  0
  9 20  4  0
  9 22  4  0
 10 17  1  0
 10 25  1  0
 11 16  4  0
 11 19  4  0
 12 15  4  0
 12 22  4  0
 14 24  4  0
 14 25  4  0
 15 17  4  0
 17 20  4  0
 18 23  1  0
 19 25  4  0
M  END
$$$$

 Created by Python create_sdf_string function

 25 28  0  0  0  0  0  0  0  0999 V2000
   13.1533   -5.2399   21.0682 C   0  0  0  0  0  0  0  0  0  0  0  0
   10.4729   -4.0295   17.6135 C   0  0  0  0  0  0  0  0  0  0  0  0
   10.4789   -4.3641   20.9564 C   0  0  0  0  0  0  0  0  0  0  0  0
    8.7421   -5.1412   16.3650 C   0  0  0  0  0  0  0  0  0  0  0  0
   11.4353   -2.9204   17.8044 C   0  0  0  0  0  0  0  0  0  0  0  0
   11.1529   -4.3028   22.1277 C   0  0  0  0  0  0  0  0  0  0  0  0
   11.1290   -4.8502   19.8052 C   0  0  0  0  0  0  0  0  0  0  0  0
   12.4329   -4.2159   24.4224 C   0  0  0  0  0  0  0  0  0  0  0  0
    3.4740   -9.0387   16.5022 C   0  0  0  0  0  0  0  0  0  0  0  0
    6.8384   -7.9290   17.5282 N   0  0  0  0  0  0  0  0  0  0  0  0
    9.4126   -5.9853   18.4899 C   0  0  0  0  0  0  0  0  0  0  0  0
    4.2064  -10.3242   18.3302 C   0  0  0  0  0  0  0  0  0  0  0  0
    9.6599   -4.1551   16.4796 N   0  0  0  0  0  0  0  0  0  0  0  0
    7.0644   -6.4612   15.7375 N   0  0  0  0  0  0  0  0  0  0  0  0
    5.3549   -9.6322   18.3190 C   0  0  0  0  0  0  0  0  0  0  0  0
   10.3704   -4.9638   18.6510 C   0  0  0  0  0  0  0  0  0  0  0  0
    5.5935   -8.6419   17.4234 C   0  0  0  0  0  0  0  0  0  0  0  0
   13.0726   -4.6648   23.3394 O   0  0  0  0  0  0  0  0  0  0  0  0
    8.5955   -6.0705   17.3996 C   0  0  0  0  0  0  0  0  0  0  0  0
    4.6223   -8.3832   16.5030 C   0  0  0  0  0  0  0  0  0  0  0  0
   12.4690   -5.2624   19.9024 C   0  0  0  0  0  0  0  0  0  0  0  0
    3.2548   -9.9919   17.4189 C   0  0  0  0  0  0  0  0  0  0  0  0
   12.4767   -4.7393   22.1790 C   0  0  0  0  0  0  0  0  0  0  0  0
    7.8593   -5.3772   15.3569 N   0  0  0  0  0  0  0  0  0  0  0  0
    7.4412   -6.9038   16.9283 C   0  0  0  0  0  0  0  0  0  0  0  0
  1 21  4  0
  1 23  4  0
  2  5  1  0
  2 13  4  0
  2 16  4  0
  3  6  4  0
  3  7  4  0
  4 13  4  0
  4 19  4  0
  4 24  4  0
  6 23  4  0
  7 16  1  0
  7 21  4  0
  8 18  1  0
  9 20  4  0
  9 22  4  0
 10 17  1  0
 10 25  1  0
 11 16  4  0
 11 19  4  0
 12 15  4  0
 12 22  4  0
 14 24  4  0
 14 25  4  0
 15 17  4  0
 17 20  4  0
 18 23  1  0
 19 25  4  0
M  END
$$$$

 Created by Python create_sdf_string function

 25 28  0  0  0  0  0  0  0  0999 V2000
   13.1533   -5.2399   21.0682 C   0  0  0  0  0  0  0  0  0  0  0  0
   10.4729   -4.0295   17.6135 C   0  0  0  0  0  0  0  0  0  0  0  0
   10.4789   -4.3641   20.9564 C   0  0  0  0  0  0  0  0  0  0  0  0
    8.7421   -5.1412   16.3650 C   0  0  0  0  0  0  0  0  0  0  0  0
   11.4353   -2.9204   17.8044 C   0  0  0  0  0  0  0  0  0  0  0  0
   11.1529   -4.3028   22.1277 C   0  0  0  0  0  0  0  0  0  0  0  0
   11.1290   -4.8502   19.8052 C   0  0  0  0  0  0  0  0  0  0  0  0
   12.4329   -4.2159   24.4224 C   0  0  0  0  0  0  0  0  0  0  0  0
    3.4740   -9.0387   16.5022 C   0  0  0  0  0  0  0  0  0  0  0  0
    6.8384   -7.9290   17.5282 N   0  0  0  0  0  0  0  0  0  0  0  0
    9.4126   -5.9853   18.4899 C   0  0  0  0  0  0  0  0  0  0  0  0
    4.2064  -10.3242   18.3302 C   0  0  0  0  0  0  0  0  0  0  0  0
    9.6599   -4.1551   16.4796 N   0  0  0  0  0  0  0  0  0  0  0  0
    7.0644   -6.4612   15.7375 N   0  0  0  0  0  0  0  0  0  0  0  0
    5.3549   -9.6322   18.3190 C   0  0  0  0  0  0  0  0  0  0  0  0
   10.3704   -4.9638   18.6510 C   0  0  0  0  0  0  0  0  0  0  0  0
    5.5935   -8.6419   17.4234 C   0  0  0  0  0  0  0  0  0  0  0  0
   13.0726   -4.6648   23.3394 O   0  0  0  0  0  0  0  0  0  0  0  0
    8.5955   -6.0705   17.3996 C   0  0  0  0  0  0  0  0  0  0  0  0
    4.6223   -8.3832   16.5030 C   0  0  0  0  0  0  0  0  0  0  0  0
   12.4690   -5.2624   19.9024 C   0  0  0  0  0  0  0  0  0  0  0  0
    3.2548   -9.9919   17.4189 C   0  0  0  0  0  0  0  0  0  0  0  0
   12.4767   -4.7393   22.1790 C   0  0  0  0  0  0  0  0  0  0  0  0
    7.8593   -5.3772   15.3569 N   0  0  0  0  0  0  0  0  0  0  0  0
    7.4412   -6.9038   16.9283 C   0  0  0  0  0  0  0  0  0  0  0  0
  1 21  4  0
  1 23  4  0
  2  5  1  0
  2 13  4  0
  2 16  4  0
  3  6  4  0
  3  7  4  0
  4 13  4  0
  4 19  4  0
  4 24  4  0
  6 23  4  0
  7 16  1  0
  7 21  4  0
  8 18  1  0
  9 20  4  0
  9 22  4  0
 10 17  1  0
 10 25  1  0
 11 16  4  0
 11 19  4  0
 12 15  4  0
 12 22  4  0
 14 24  4  0
 14 25  4  0
 15 17  4  0
 17 20  4  0
 18 23  1  0
 19 25  4  0
M  END
$$$$

 Created by Python create_sdf_string function

 25 28  0  0  0  0  0  0  0  0999 V2000
   13.1533   -5.2399   21.0682 C   0  0  0  0  0  0  0  0  0  0  0  0
   10.4729   -4.0295   17.6135 C   0  0  0  0  0  0  0  0  0  0  0  0
   10.4789   -4.3641   20.9564 C   0  0  0  0  0  0  0  0  0  0  0  0
    8.7421   -5.1412   16.3650 C   0  0  0  0  0  0  0  0  0  0  0  0
   11.4353   -2.9204   17.8044 C   0  0  0  0  0  0  0  0  0  0  0  0
   11.1529   -4.3028   22.1277 C   0  0  0  0  0  0  0  0  0  0  0  0
   11.1290   -4.8502   19.8052 C   0  0  0  0  0  0  0  0  0  0  0  0
   12.4329   -4.2159   24.4224 C   0  0  0  0  0  0  0  0  0  0  0  0
    3.4740   -9.0387   16.5022 C   0  0  0  0  0  0  0  0  0  0  0  0
    6.8384   -7.9290   17.5282 N   0  0  0  0  0  0  0  0  0  0  0  0
    9.4126   -5.9853   18.4899 C   0  0  0  0  0  0  0  0  0  0  0  0
    4.2064  -10.3242   18.3302 C   0  0  0  0  0  0  0  0  0  0  0  0
    9.6599   -4.1551   16.4796 N   0  0  0  0  0  0  0  0  0  0  0  0
    7.0644   -6.4612   15.7375 N   0  0  0  0  0  0  0  0  0  0  0  0
    5.3549   -9.6322   18.3190 C   0  0  0  0  0  0  0  0  0  0  0  0
   10.3704   -4.9638   18.6510 C   0  0  0  0  0  0  0  0  0  0  0  0
    5.5935   -8.6419   17.4234 C   0  0  0  0  0  0  0  0  0  0  0  0
   13.0726   -4.6648   23.3394 O   0  0  0  0  0  0  0  0  0  0  0  0
    8.5955   -6.0705   17.3996 C   0  0  0  0  0  0  0  0  0  0  0  0
    4.6223   -8.3832   16.5030 C   0  0  0  0  0  0  0  0  0  0  0  0
   12.4690   -5.2624   19.9024 C   0  0  0  0  0  0  0  0  0  0  0  0
    3.2548   -9.9919   17.4189 C   0  0  0  0  0  0  0  0  0  0  0  0
   12.4767   -4.7393   22.1790 C   0  0  0  0  0  0  0  0  0  0  0  0
    7.8593   -5.3772   15.3569 N   0  0  0  0  0  0  0  0  0  0  0  0
    7.4412   -6.9038   16.9283 C   0  0  0  0  0  0  0  0  0  0  0  0
  1 21  4  0
  1 23  4  0
  2  5  1  0
  2 13  4  0
  2 16  4  0
  3  6  4  0
  3  7  4  0
  4 13  4  0
  4 19  4  0
  4 24  4  0
  6 23  4  0
  7 16  1  0
  7 21  4  0
  8 18  1  0
  9 20  4  0
  9 22  4  0
 10 17  1  0
 10 25  1  0
 11 16  4  0
 11 19  4  0
 12 15  4  0
 12 22  4  0
 14 24  4  0
 14 25  4  0
 15 17  4  0
 17 20  4  0
 18 23  1  0
 19 25  4  0
M  END
$$$$

 Created by Python create_sdf_string function

 25 28  0  0  0  0  0  0  0  0999 V2000
   13.1533   -5.2399   21.0682 C   0  0  0  0  0  0  0  0  0  0  0  0
   10.4729   -4.0295   17.6135 C   0  0  0  0  0  0  0  0  0  0  0  0
   10.4789   -4.3641   20.9564 C   0  0  0  0  0  0  0  0  0  0  0  0
    8.7421   -5.1412   16.3650 C   0  0  0  0  0  0  0  0  0  0  0  0
   11.4353   -2.9204   17.8044 C   0  0  0  0  0  0  0  0  0  0  0  0
   11.1529   -4.3028   22.1277 C   0  0  0  0  0  0  0  0  0  0  0  0
   11.1290   -4.8502   19.8052 C   0  0  0  0  0  0  0  0  0  0  0  0
   12.4329   -4.2159   24.4224 C   0  0  0  0  0  0  0  0  0  0  0  0
    3.4740   -9.0387   16.5022 C   0  0  0  0  0  0  0  0  0  0  0  0
    6.8384   -7.9290   17.5282 N   0  0  0  0  0  0  0  0  0  0  0  0
    9.4126   -5.9853   18.4899 C   0  0  0  0  0  0  0  0  0  0  0  0
    4.2064  -10.3242   18.3302 C   0  0  0  0  0  0  0  0  0  0  0  0
    9.6599   -4.1551   16.4796 N   0  0  0  0  0  0  0  0  0  0  0  0
    7.0644   -6.4612   15.7375 N   0  0  0  0  0  0  0  0  0  0  0  0
    5.3549   -9.6322   18.3190 C   0  0  0  0  0  0  0  0  0  0  0  0
   10.3704   -4.9638   18.6510 C   0  0  0  0  0  0  0  0  0  0  0  0
    5.5935   -8.6419   17.4234 C   0  0  0  0  0  0  0  0  0  0  0  0
   13.0726   -4.6648   23.3394 O   0  0  0  0  0  0  0  0  0  0  0  0
    8.5955   -6.0705   17.3996 C   0  0  0  0  0  0  0  0  0  0  0  0
    4.6223   -8.3832   16.5030 C   0  0  0  0  0  0  0  0  0  0  0  0
   12.4690   -5.2624   19.9024 C   0  0  0  0  0  0  0  0  0  0  0  0
    3.2548   -9.9919   17.4189 C   0  0  0  0  0  0  0  0  0  0  0  0
   12.4767   -4.7393   22.1790 C   0  0  0  0  0  0  0  0  0  0  0  0
    7.8593   -5.3772   15.3569 N   0  0  0  0  0  0  0  0  0  0  0  0
    7.4412   -6.9038   16.9283 C   0  0  0  0  0  0  0  0  0  0  0  0
  1 21  4  0
  1 23  4  0
  2  5  1  0
  2 13  4  0
  2 16  4  0
  3  6  4  0
  3  7  4  0
  4 13  4  0
  4 19  4  0
  4 24  4  0
  6 23  4  0
  7 16  1  0
  7 21  4  0
  8 18  1  0
  9 20  4  0
  9 22  4  0
 10 17  1  0
 10 25  1  0
 11 16  4  0
 11 19  4  0
 12 15  4  0
 12 22  4  0
 14 24  4  0
 14 25  4  0
 15 17  4  0
 17 20  4  0
 18 23  1  0
 19 25  4  0
M  END
$$$$

 Created by Python create_sdf_string function

 25 28  0  0  0  0  0  0  0  0999 V2000
   13.1533   -5.2399   21.0682 C   0  0  0  0  0  0  0  0  0  0  0  0
   10.4729   -4.0295   17.6135 C   0  0  0  0  0  0  0  0  0  0  0  0
   10.4789   -4.3641   20.9564 C   0  0  0  0  0  0  0  0  0  0  0  0
    8.7421   -5.1412   16.3650 C   0  0  0  0  0  0  0  0  0  0  0  0
   11.4353   -2.9204   17.8044 C   0  0  0  0  0  0  0  0  0  0  0  0
   11.1529   -4.3028   22.1277 C   0  0  0  0  0  0  0  0  0  0  0  0
   11.1290   -4.8502   19.8052 C   0  0  0  0  0  0  0  0  0  0  0  0
   12.4329   -4.2159   24.4224 C   0  0  0  0  0  0  0  0  0  0  0  0
    3.4740   -9.0387   16.5022 C   0  0  0  0  0  0  0  0  0  0  0  0
    6.8384   -7.9290   17.5282 N   0  0  0  0  0  0  0  0  0  0  0  0
    9.4126   -5.9853   18.4899 C   0  0  0  0  0  0  0  0  0  0  0  0
    4.2064  -10.3242   18.3302 C   0  0  0  0  0  0  0  0  0  0  0  0
    9.6599   -4.1551   16.4796 N   0  0  0  0  0  0  0  0  0  0  0  0
    7.0644   -6.4612   15.7375 N   0  0  0  0  0  0  0  0  0  0  0  0
    5.3549   -9.6322   18.3190 C   0  0  0  0  0  0  0  0  0  0  0  0
   10.3704   -4.9638   18.6510 C   0  0  0  0  0  0  0  0  0  0  0  0
    5.5935   -8.6419   17.4234 C   0  0  0  0  0  0  0  0  0  0  0  0
   13.0726   -4.6648   23.3394 O   0  0  0  0  0  0  0  0  0  0  0  0
    8.5955   -6.0705   17.3996 C   0  0  0  0  0  0  0  0  0  0  0  0
    4.6223   -8.3832   16.5030 C   0  0  0  0  0  0  0  0  0  0  0  0
   12.4690   -5.2624   19.9024 C   0  0  0  0  0  0  0  0  0  0  0  0
    3.2548   -9.9919   17.4189 C   0  0  0  0  0  0  0  0  0  0  0  0
   12.4767   -4.7393   22.1790 C   0  0  0  0  0  0  0  0  0  0  0  0
    7.8593   -5.3772   15.3569 N   0  0  0  0  0  0  0  0  0  0  0  0
    7.4412   -6.9038   16.9283 C   0  0  0  0  0  0  0  0  0  0  0  0
  1 21  4  0
  1 23  4  0
  2  5  1  0
  2 13  4  0
  2 16  4  0
  3  6  4  0
  3  7  4  0
  4 13  4  0
  4 19  4  0
  4 24  4  0
  6 23  4  0
  7 16  1  0
  7 21  4  0
  8 18  1  0
  9 20  4  0
  9 22  4  0
 10 17  1  0
 10 25  1  0
 11 16  4  0
 11 19  4  0
 12 15  4  0
 12 22  4  0
 14 24  4  0
 14 25  4  0
 15 17  4  0
 17 20  4  0
 18 23  1  0
 19 25  4  0
M  END
$$$$

 Created by Python create_sdf_string function

 25 28  0  0  0  0  0  0  0  0999 V2000
   13.1533   -5.2399   21.0682 C   0  0  0  0  0  0  0  0  0  0  0  0
   10.4729   -4.0295   17.6135 C   0  0  0  0  0  0  0  0  0  0  0  0
   10.4789   -4.3641   20.9564 C   0  0  0  0  0  0  0  0  0  0  0  0
    8.7421   -5.1412   16.3650 C   0  0  0  0  0  0  0  0  0  0  0  0
   11.4353   -2.9204   17.8044 C   0  0  0  0  0  0  0  0  0  0  0  0
   11.1529   -4.3028   22.1277 C   0  0  0  0  0  0  0  0  0  0  0  0
   11.1290   -4.8502   19.8052 C   0  0  0  0  0  0  0  0  0  0  0  0
   12.4329   -4.2159   24.4224 C   0  0  0  0  0  0  0  0  0  0  0  0
    3.4740   -9.0387   16.5022 C   0  0  0  0  0  0  0  0  0  0  0  0
    6.8384   -7.9290   17.5282 N   0  0  0  0  0  0  0  0  0  0  0  0
    9.4126   -5.9853   18.4899 C   0  0  0  0  0  0  0  0  0  0  0  0
    4.2064  -10.3242   18.3302 C   0  0  0  0  0  0  0  0  0  0  0  0
    9.6599   -4.1551   16.4796 N   0  0  0  0  0  0  0  0  0  0  0  0
    7.0644   -6.4612   15.7375 N   0  0  0  0  0  0  0  0  0  0  0  0
    5.3549   -9.6322   18.3190 C   0  0  0  0  0  0  0  0  0  0  0  0
   10.3704   -4.9638   18.6510 C   0  0  0  0  0  0  0  0  0  0  0  0
    5.5935   -8.6419   17.4234 C   0  0  0  0  0  0  0  0  0  0  0  0
   13.0726   -4.6648   23.3394 O   0  0  0  0  0  0  0  0  0  0  0  0
    8.5955   -6.0705   17.3996 C   0  0  0  0  0  0  0  0  0  0  0  0
    4.6223   -8.3832   16.5030 C   0  0  0  0  0  0  0  0  0  0  0  0
   12.4690   -5.2624   19.9024 C   0  0  0  0  0  0  0  0  0  0  0  0
    3.2548   -9.9919   17.4189 C   0  0  0  0  0  0  0  0  0  0  0  0
   12.4767   -4.7393   22.1790 C   0  0  0  0  0  0  0  0  0  0  0  0
    7.8593   -5.3772   15.3569 N   0  0  0  0  0  0  0  0  0  0  0  0
    7.4412   -6.9038   16.9283 C   0  0  0  0  0  0  0  0  0  0  0  0
  1 21  4  0
  1 23  4  0
  2  5  1  0
  2 13  4  0
  2 16  4  0
  3  6  4  0
  3  7  4  0
  4 13  4  0
  4 19  4  0
  4 24  4  0
  6 23  4  0
  7 16  1  0
  7 21  4  0
  8 18  1  0
  9 20  4  0
  9 22  4  0
 10 17  1  0
 10 25  1  0
 11 16  4  0
 11 19  4  0
 12 15  4  0
 12 22  4  0
 14 24  4  0
 14 25  4  0
 15 17  4  0
 17 20  4  0
 18 23  1  0
 19 25  4  0
M  END
$$$$

 Created by Python create_sdf_string function

 25 28  0  0  0  0  0  0  0  0999 V2000
   13.1533   -5.2399   21.0682 C   0  0  0  0  0  0  0  0  0  0  0  0
   10.4729   -4.0295   17.6135 C   0  0  0  0  0  0  0  0  0  0  0  0
   10.4789   -4.3641   20.9564 C   0  0  0  0  0  0  0  0  0  0  0  0
    8.7421   -5.1412   16.3650 C   0  0  0  0  0  0  0  0  0  0  0  0
   11.4353   -2.9204   17.8044 C   0  0  0  0  0  0  0  0  0  0  0  0
   11.1529   -4.3028   22.1277 C   0  0  0  0  0  0  0  0  0  0  0  0
   11.1290   -4.8502   19.8052 C   0  0  0  0  0  0  0  0  0  0  0  0
   12.4329   -4.2159   24.4224 C   0  0  0  0  0  0  0  0  0  0  0  0
    3.4740   -9.0387   16.5022 C   0  0  0  0  0  0  0  0  0  0  0  0
    6.8384   -7.9290   17.5282 N   0  0  0  0  0  0  0  0  0  0  0  0
    9.4126   -5.9853   18.4899 C   0  0  0  0  0  0  0  0  0  0  0  0
    4.2064  -10.3242   18.3302 C   0  0  0  0  0  0  0  0  0  0  0  0
    9.6599   -4.1551   16.4796 N   0  0  0  0  0  0  0  0  0  0  0  0
    7.0644   -6.4612   15.7375 N   0  0  0  0  0  0  0  0  0  0  0  0
    5.3549   -9.6322   18.3190 C   0  0  0  0  0  0  0  0  0  0  0  0
   10.3704   -4.9638   18.6510 C   0  0  0  0  0  0  0  0  0  0  0  0
    5.5935   -8.6419   17.4234 C   0  0  0  0  0  0  0  0  0  0  0  0
   13.0726   -4.6648   23.3394 O   0  0  0  0  0  0  0  0  0  0  0  0
    8.5955   -6.0705   17.3996 C   0  0  0  0  0  0  0  0  0  0  0  0
    4.6223   -8.3832   16.5030 C   0  0  0  0  0  0  0  0  0  0  0  0
   12.4690   -5.2624   19.9024 C   0  0  0  0  0  0  0  0  0  0  0  0
    3.2548   -9.9919   17.4189 C   0  0  0  0  0  0  0  0  0  0  0  0
   12.4767   -4.7393   22.1790 C   0  0  0  0  0  0  0  0  0  0  0  0
    7.8593   -5.3772   15.3569 N   0  0  0  0  0  0  0  0  0  0  0  0
    7.4412   -6.9038   16.9283 C   0  0  0  0  0  0  0  0  0  0  0  0
  1 21  4  0
  1 23  4  0
  2  5  1  0
  2 13  4  0
  2 16  4  0
  3  6  4  0
  3  7  4  0
  4 13  4  0
  4 19  4  0
  4 24  4  0
  6 23  4  0
  7 16  1  0
  7 21  4  0
  8 18  1  0
  9 20  4  0
  9 22  4  0
 10 17  1  0
 10 25  1  0
 11 16  4  0
 11 19  4  0
 12 15  4  0
 12 22  4  0
 14 24  4  0
 14 25  4  0
 15 17  4  0
 17 20  4  0
 18 23  1  0
 19 25  4  0
M  END
$$$$

 Created by Python create_sdf_string function

 25 28  0  0  0  0  0  0  0  0999 V2000
   13.1533   -5.2399   21.0682 C   0  0  0  0  0  0  0  0  0  0  0  0
   10.4729   -4.0295   17.6135 C   0  0  0  0  0  0  0  0  0  0  0  0
   10.4789   -4.3641   20.9564 C   0  0  0  0  0  0  0  0  0  0  0  0
    8.7421   -5.1412   16.3650 C   0  0  0  0  0  0  0  0  0  0  0  0
   11.4353   -2.9204   17.8044 C   0  0  0  0  0  0  0  0  0  0  0  0
   11.1529   -4.3028   22.1277 C   0  0  0  0  0  0  0  0  0  0  0  0
   11.1290   -4.8502   19.8052 C   0  0  0  0  0  0  0  0  0  0  0  0
   12.4329   -4.2159   24.4224 C   0  0  0  0  0  0  0  0  0  0  0  0
    3.4740   -9.0387   16.5022 C   0  0  0  0  0  0  0  0  0  0  0  0
    6.8384   -7.9290   17.5282 N   0  0  0  0  0  0  0  0  0  0  0  0
    9.4126   -5.9853   18.4899 C   0  0  0  0  0  0  0  0  0  0  0  0
    4.2064  -10.3242   18.3302 C   0  0  0  0  0  0  0  0  0  0  0  0
    9.6599   -4.1551   16.4796 N   0  0  0  0  0  0  0  0  0  0  0  0
    7.0644   -6.4612   15.7375 N   0  0  0  0  0  0  0  0  0  0  0  0
    5.3549   -9.6322   18.3190 C   0  0  0  0  0  0  0  0  0  0  0  0
   10.3704   -4.9638   18.6510 C   0  0  0  0  0  0  0  0  0  0  0  0
    5.5935   -8.6419   17.4234 C   0  0  0  0  0  0  0  0  0  0  0  0
   13.0726   -4.6648   23.3394 O   0  0  0  0  0  0  0  0  0  0  0  0
    8.5955   -6.0705   17.3996 C   0  0  0  0  0  0  0  0  0  0  0  0
    4.6223   -8.3832   16.5030 C   0  0  0  0  0  0  0  0  0  0  0  0
   12.4690   -5.2624   19.9024 C   0  0  0  0  0  0  0  0  0  0  0  0
    3.2548   -9.9919   17.4189 C   0  0  0  0  0  0  0  0  0  0  0  0
   12.4767   -4.7393   22.1790 C   0  0  0  0  0  0  0  0  0  0  0  0
    7.8593   -5.3772   15.3569 N   0  0  0  0  0  0  0  0  0  0  0  0
    7.4412   -6.9038   16.9283 C   0  0  0  0  0  0  0  0  0  0  0  0
  1 21  4  0
  1 23  4  0
  2  5  1  0
  2 13  4  0
  2 16  4  0
  3  6  4  0
  3  7  4  0
  4 13  4  0
  4 19  4  0
  4 24  4  0
  6 23  4  0
  7 16  1  0
  7 21  4  0
  8 18  1  0
  9 20  4  0
  9 22  4  0
 10 17  1  0
 10 25  1  0
 11 16  4  0
 11 19  4  0
 12 15  4  0
 12 22  4  0
 14 24  4  0
 14 25  4  0
 15 17  4  0
 17 20  4  0
 18 23  1  0
 19 25  4  0
M  END
$$$$

 Created by Python create_sdf_string function

 25 28  0  0  0  0  0  0  0  0999 V2000
   13.1533   -5.2399   21.0682 C   0  0  0  0  0  0  0  0  0  0  0  0
   10.4729   -4.0295   17.6135 C   0  0  0  0  0  0  0  0  0  0  0  0
   10.4789   -4.3641   20.9564 C   0  0  0  0  0  0  0  0  0  0  0  0
    8.7421   -5.1412   16.3650 C   0  0  0  0  0  0  0  0  0  0  0  0
   11.4353   -2.9204   17.8044 C   0  0  0  0  0  0  0  0  0  0  0  0
   11.1529   -4.3028   22.1277 C   0  0  0  0  0  0  0  0  0  0  0  0
   11.1290   -4.8502   19.8052 C   0  0  0  0  0  0  0  0  0  0  0  0
   12.4329   -4.2159   24.4224 C   0  0  0  0  0  0  0  0  0  0  0  0
    3.4740   -9.0387   16.5022 C   0  0  0  0  0  0  0  0  0  0  0  0
    6.8384   -7.9290   17.5282 N   0  0  0  0  0  0  0  0  0  0  0  0
    9.4126   -5.9853   18.4899 C   0  0  0  0  0  0  0  0  0  0  0  0
    4.2064  -10.3242   18.3302 C   0  0  0  0  0  0  0  0  0  0  0  0
    9.6599   -4.1551   16.4796 N   0  0  0  0  0  0  0  0  0  0  0  0
    7.0644   -6.4612   15.7375 N   0  0  0  0  0  0  0  0  0  0  0  0
    5.3549   -9.6322   18.3190 C   0  0  0  0  0  0  0  0  0  0  0  0
   10.3704   -4.9638   18.6510 C   0  0  0  0  0  0  0  0  0  0  0  0
    5.5935   -8.6419   17.4234 C   0  0  0  0  0  0  0  0  0  0  0  0
   13.0726   -4.6648   23.3394 O   0  0  0  0  0  0  0  0  0  0  0  0
    8.5955   -6.0705   17.3996 C   0  0  0  0  0  0  0  0  0  0  0  0
    4.6223   -8.3832   16.5030 C   0  0  0  0  0  0  0  0  0  0  0  0
   12.4690   -5.2624   19.9024 C   0  0  0  0  0  0  0  0  0  0  0  0
    3.2548   -9.9919   17.4189 C   0  0  0  0  0  0  0  0  0  0  0  0
   12.4767   -4.7393   22.1790 C   0  0  0  0  0  0  0  0  0  0  0  0
    7.8593   -5.3772   15.3569 N   0  0  0  0  0  0  0  0  0  0  0  0
    7.4412   -6.9038   16.9283 C   0  0  0  0  0  0  0  0  0  0  0  0
  1 21  4  0
  1 23  4  0
  2  5  1  0
  2 13  4  0
  2 16  4  0
  3  6  4  0
  3  7  4  0
  4 13  4  0
  4 19  4  0
  4 24  4  0
  6 23  4  0
  7 16  1  0
  7 21  4  0
  8 18  1  0
  9 20  4  0
  9 22  4  0
 10 17  1  0
 10 25  1  0
 11 16  4  0
 11 19  4  0
 12 15  4  0
 12 22  4  0
 14 24  4  0
 14 25  4  0
 15 17  4  0
 17 20  4  0
 18 23  1  0
 19 25  4  0
M  END
$$$$

 Created by Python create_sdf_string function

 25 28  0  0  0  0  0  0  0  0999 V2000
   13.1533   -5.2399   21.0682 C   0  0  0  0  0  0  0  0  0  0  0  0
   10.4729   -4.0295   17.6135 C   0  0  0  0  0  0  0  0  0  0  0  0
   10.4789   -4.3641   20.9564 C   0  0  0  0  0  0  0  0  0  0  0  0
    8.7421   -5.1412   16.3650 C   0  0  0  0  0  0  0  0  0  0  0  0
   11.4353   -2.9204   17.8044 C   0  0  0  0  0  0  0  0  0  0  0  0
   11.1529   -4.3028   22.1277 C   0  0  0  0  0  0  0  0  0  0  0  0
   11.1290   -4.8502   19.8052 C   0  0  0  0  0  0  0  0  0  0  0  0
   12.4329   -4.2159   24.4224 C   0  0  0  0  0  0  0  0  0  0  0  0
    3.4740   -9.0387   16.5022 C   0  0  0  0  0  0  0  0  0  0  0  0
    6.8384   -7.9290   17.5282 N   0  0  0  0  0  0  0  0  0  0  0  0
    9.4126   -5.9853   18.4899 C   0  0  0  0  0  0  0  0  0  0  0  0
    4.2064  -10.3242   18.3302 C   0  0  0  0  0  0  0  0  0  0  0  0
    9.6599   -4.1551   16.4796 N   0  0  0  0  0  0  0  0  0  0  0  0
    7.0644   -6.4612   15.7375 N   0  0  0  0  0  0  0  0  0  0  0  0
    5.3549   -9.6322   18.3190 C   0  0  0  0  0  0  0  0  0  0  0  0
   10.3704   -4.9638   18.6510 C   0  0  0  0  0  0  0  0  0  0  0  0
    5.5935   -8.6419   17.4234 C   0  0  0  0  0  0  0  0  0  0  0  0
   13.0726   -4.6648   23.3394 O   0  0  0  0  0  0  0  0  0  0  0  0
    8.5955   -6.0705   17.3996 C   0  0  0  0  0  0  0  0  0  0  0  0
    4.6223   -8.3832   16.5030 C   0  0  0  0  0  0  0  0  0  0  0  0
   12.4690   -5.2624   19.9024 C   0  0  0  0  0  0  0  0  0  0  0  0
    3.2548   -9.9919   17.4189 C   0  0  0  0  0  0  0  0  0  0  0  0
   12.4767   -4.7393   22.1790 C   0  0  0  0  0  0  0  0  0  0  0  0
    7.8593   -5.3772   15.3569 N   0  0  0  0  0  0  0  0  0  0  0  0
    7.4412   -6.9038   16.9283 C   0  0  0  0  0  0  0  0  0  0  0  0
  1 21  4  0
  1 23  4  0
  2  5  1  0
  2 13  4  0
  2 16  4  0
  3  6  4  0
  3  7  4  0
  4 13  4  0
  4 19  4  0
  4 24  4  0
  6 23  4  0
  7 16  1  0
  7 21  4  0
  8 18  1  0
  9 20  4  0
  9 22  4  0
 10 17  1  0
 10 25  1  0
 11 16  4  0
 11 19  4  0
 12 15  4  0
 12 22  4  0
 14 24  4  0
 14 25  4  0
 15 17  4  0
 17 20  4  0
 18 23  1  0
 19 25  4  0
M  END
$$$$

 Created by Python create_sdf_string function

 25 28  0  0  0  0  0  0  0  0999 V2000
   13.1533   -5.2399   21.0682 C   0  0  0  0  0  0  0  0  0  0  0  0
   10.4729   -4.0295   17.6135 C   0  0  0  0  0  0  0  0  0  0  0  0
   10.4789   -4.3641   20.9564 C   0  0  0  0  0  0  0  0  0  0  0  0
    8.7421   -5.1412   16.3650 C   0  0  0  0  0  0  0  0  0  0  0  0
   11.4353   -2.9204   17.8044 C   0  0  0  0  0  0  0  0  0  0  0  0
   11.1529   -4.3028   22.1277 C   0  0  0  0  0  0  0  0  0  0  0  0
   11.1290   -4.8502   19.8052 C   0  0  0  0  0  0  0  0  0  0  0  0
   12.4329   -4.2159   24.4224 C   0  0  0  0  0  0  0  0  0  0  0  0
    3.4740   -9.0387   16.5022 C   0  0  0  0  0  0  0  0  0  0  0  0
    6.8384   -7.9290   17.5282 N   0  0  0  0  0  0  0  0  0  0  0  0
    9.4126   -5.9853   18.4899 C   0  0  0  0  0  0  0  0  0  0  0  0
    4.2064  -10.3242   18.3302 C   0  0  0  0  0  0  0  0  0  0  0  0
    9.6599   -4.1551   16.4796 N   0  0  0  0  0  0  0  0  0  0  0  0
    7.0644   -6.4612   15.7375 N   0  0  0  0  0  0  0  0  0  0  0  0
    5.3549   -9.6322   18.3190 C   0  0  0  0  0  0  0  0  0  0  0  0
   10.3704   -4.9638   18.6510 C   0  0  0  0  0  0  0  0  0  0  0  0
    5.5935   -8.6419   17.4234 C   0  0  0  0  0  0  0  0  0  0  0  0
   13.0726   -4.6648   23.3394 O   0  0  0  0  0  0  0  0  0  0  0  0
    8.5955   -6.0705   17.3996 C   0  0  0  0  0  0  0  0  0  0  0  0
    4.6223   -8.3832   16.5030 C   0  0  0  0  0  0  0  0  0  0  0  0
   12.4690   -5.2624   19.9024 C   0  0  0  0  0  0  0  0  0  0  0  0
    3.2548   -9.9919   17.4189 C   0  0  0  0  0  0  0  0  0  0  0  0
   12.4767   -4.7393   22.1790 C   0  0  0  0  0  0  0  0  0  0  0  0
    7.8593   -5.3772   15.3569 N   0  0  0  0  0  0  0  0  0  0  0  0
    7.4412   -6.9038   16.9283 C   0  0  0  0  0  0  0  0  0  0  0  0
  1 21  4  0
  1 23  4  0
  2  5  1  0
  2 13  4  0
  2 16  4  0
  3  6  4  0
  3  7  4  0
  4 13  4  0
  4 19  4  0
  4 24  4  0
  6 23  4  0
  7 16  1  0
  7 21  4  0
  8 18  1  0
  9 20  4  0
  9 22  4  0
 10 17  1  0
 10 25  1  0
 11 16  4  0
 11 19  4  0
 12 15  4  0
 12 22  4  0
 14 24  4  0
 14 25  4  0
 15 17  4  0
 17 20  4  0
 18 23  1  0
 19 25  4  0
M  END
$$$$

 Created by Python create_sdf_string function

 25 28  0  0  0  0  0  0  0  0999 V2000
   13.1533   -5.2399   21.0682 C   0  0  0  0  0  0  0  0  0  0  0  0
   10.4729   -4.0295   17.6135 C   0  0  0  0  0  0  0  0  0  0  0  0
   10.4789   -4.3641   20.9564 C   0  0  0  0  0  0  0  0  0  0  0  0
    8.7421   -5.1412   16.3650 C   0  0  0  0  0  0  0  0  0  0  0  0
   11.4353   -2.9204   17.8044 C   0  0  0  0  0  0  0  0  0  0  0  0
   11.1529   -4.3028   22.1277 C   0  0  0  0  0  0  0  0  0  0  0  0
   11.1290   -4.8502   19.8052 C   0  0  0  0  0  0  0  0  0  0  0  0
   12.4329   -4.2159   24.4224 C   0  0  0  0  0  0  0  0  0  0  0  0
    3.4740   -9.0387   16.5022 C   0  0  0  0  0  0  0  0  0  0  0  0
    6.8384   -7.9290   17.5282 N   0  0  0  0  0  0  0  0  0  0  0  0
    9.4126   -5.9853   18.4899 C   0  0  0  0  0  0  0  0  0  0  0  0
    4.2064  -10.3242   18.3302 C   0  0  0  0  0  0  0  0  0  0  0  0
    9.6599   -4.1551   16.4796 N   0  0  0  0  0  0  0  0  0  0  0  0
    7.0644   -6.4612   15.7375 N   0  0  0  0  0  0  0  0  0  0  0  0
    5.3549   -9.6322   18.3190 C   0  0  0  0  0  0  0  0  0  0  0  0
   10.3704   -4.9638   18.6510 C   0  0  0  0  0  0  0  0  0  0  0  0
    5.5935   -8.6419   17.4234 C   0  0  0  0  0  0  0  0  0  0  0  0
   13.0726   -4.6648   23.3394 O   0  0  0  0  0  0  0  0  0  0  0  0
    8.5955   -6.0705   17.3996 C   0  0  0  0  0  0  0  0  0  0  0  0
    4.6223   -8.3832   16.5030 C   0  0  0  0  0  0  0  0  0  0  0  0
   12.4690   -5.2624   19.9024 C   0  0  0  0  0  0  0  0  0  0  0  0
    3.2548   -9.9919   17.4189 C   0  0  0  0  0  0  0  0  0  0  0  0
   12.4767   -4.7393   22.1790 C   0  0  0  0  0  0  0  0  0  0  0  0
    7.8593   -5.3772   15.3569 N   0  0  0  0  0  0  0  0  0  0  0  0
    7.4412   -6.9038   16.9283 C   0  0  0  0  0  0  0  0  0  0  0  0
  1 21  4  0
  1 23  4  0
  2  5  1  0
  2 13  4  0
  2 16  4  0
  3  6  4  0
  3  7  4  0
  4 13  4  0
  4 19  4  0
  4 24  4  0
  6 23  4  0
  7 16  1  0
  7 21  4  0
  8 18  1  0
  9 20  4  0
  9 22  4  0
 10 17  1  0
 10 25  1  0
 11 16  4  0
 11 19  4  0
 12 15  4  0
 12 22  4  0
 14 24  4  0
 14 25  4  0
 15 17  4  0
 17 20  4  0
 18 23  1  0
 19 25  4  0
M  END
$$$$

 Created by Python create_sdf_string function

 25 28  0  0  0  0  0  0  0  0999 V2000
   13.1533   -5.2399   21.0682 C   0  0  0  0  0  0  0  0  0  0  0  0
   10.4729   -4.0295   17.6135 C   0  0  0  0  0  0  0  0  0  0  0  0
   10.4789   -4.3641   20.9564 C   0  0  0  0  0  0  0  0  0  0  0  0
    8.7421   -5.1412   16.3650 C   0  0  0  0  0  0  0  0  0  0  0  0
   11.4353   -2.9204   17.8044 C   0  0  0  0  0  0  0  0  0  0  0  0
   11.1529   -4.3028   22.1277 C   0  0  0  0  0  0  0  0  0  0  0  0
   11.1290   -4.8502   19.8052 C   0  0  0  0  0  0  0  0  0  0  0  0
   12.4329   -4.2159   24.4224 C   0  0  0  0  0  0  0  0  0  0  0  0
    3.4740   -9.0387   16.5022 C   0  0  0  0  0  0  0  0  0  0  0  0
    6.8384   -7.9290   17.5282 N   0  0  0  0  0  0  0  0  0  0  0  0
    9.4126   -5.9853   18.4899 C   0  0  0  0  0  0  0  0  0  0  0  0
    4.2064  -10.3242   18.3302 C   0  0  0  0  0  0  0  0  0  0  0  0
    9.6599   -4.1551   16.4796 N   0  0  0  0  0  0  0  0  0  0  0  0
    7.0644   -6.4612   15.7375 N   0  0  0  0  0  0  0  0  0  0  0  0
    5.3549   -9.6322   18.3190 C   0  0  0  0  0  0  0  0  0  0  0  0
   10.3704   -4.9638   18.6510 C   0  0  0  0  0  0  0  0  0  0  0  0
    5.5935   -8.6419   17.4234 C   0  0  0  0  0  0  0  0  0  0  0  0
   13.0726   -4.6648   23.3394 O   0  0  0  0  0  0  0  0  0  0  0  0
    8.5955   -6.0705   17.3996 C   0  0  0  0  0  0  0  0  0  0  0  0
    4.6223   -8.3832   16.5030 C   0  0  0  0  0  0  0  0  0  0  0  0
   12.4690   -5.2624   19.9024 C   0  0  0  0  0  0  0  0  0  0  0  0
    3.2548   -9.9919   17.4189 C   0  0  0  0  0  0  0  0  0  0  0  0
   12.4767   -4.7393   22.1790 C   0  0  0  0  0  0  0  0  0  0  0  0
    7.8593   -5.3772   15.3569 N   0  0  0  0  0  0  0  0  0  0  0  0
    7.4412   -6.9038   16.9283 C   0  0  0  0  0  0  0  0  0  0  0  0
  1 21  4  0
  1 23  4  0
  2  5  1  0
  2 13  4  0
  2 16  4  0
  3  6  4  0
  3  7  4  0
  4 13  4  0
  4 19  4  0
  4 24  4  0
  6 23  4  0
  7 16  1  0
  7 21  4  0
  8 18  1  0
  9 20  4  0
  9 22  4  0
 10 17  1  0
 10 25  1  0
 11 16  4  0
 11 19  4  0
 12 15  4  0
 12 22  4  0
 14 24  4  0
 14 25  4  0
 15 17  4  0
 17 20  4  0
 18 23  1  0
 19 25  4  0
M  END
$$$$

 Created by Python create_sdf_string function

 25 28  0  0  0  0  0  0  0  0999 V2000
   13.1533   -5.2399   21.0682 C   0  0  0  0  0  0  0  0  0  0  0  0
   10.4729   -4.0295   17.6135 C   0  0  0  0  0  0  0  0  0  0  0  0
   10.4789   -4.3641   20.9564 C   0  0  0  0  0  0  0  0  0  0  0  0
    8.7421   -5.1412   16.3650 C   0  0  0  0  0  0  0  0  0  0  0  0
   11.4353   -2.9204   17.8044 C   0  0  0  0  0  0  0  0  0  0  0  0
   11.1529   -4.3028   22.1277 C   0  0  0  0  0  0  0  0  0  0  0  0
   11.1290   -4.8502   19.8052 C   0  0  0  0  0  0  0  0  0  0  0  0
   12.4329   -4.2159   24.4224 C   0  0  0  0  0  0  0  0  0  0  0  0
    3.4740   -9.0387   16.5022 C   0  0  0  0  0  0  0  0  0  0  0  0
    6.8384   -7.9290   17.5282 N   0  0  0  0  0  0  0  0  0  0  0  0
    9.4126   -5.9853   18.4899 C   0  0  0  0  0  0  0  0  0  0  0  0
    4.2064  -10.3242   18.3302 C   0  0  0  0  0  0  0  0  0  0  0  0
    9.6599   -4.1551   16.4796 N   0  0  0  0  0  0  0  0  0  0  0  0
    7.0644   -6.4612   15.7375 N   0  0  0  0  0  0  0  0  0  0  0  0
    5.3549   -9.6322   18.3190 C   0  0  0  0  0  0  0  0  0  0  0  0
   10.3704   -4.9638   18.6510 C   0  0  0  0  0  0  0  0  0  0  0  0
    5.5935   -8.6419   17.4234 C   0  0  0  0  0  0  0  0  0  0  0  0
   13.0726   -4.6648   23.3394 O   0  0  0  0  0  0  0  0  0  0  0  0
    8.5955   -6.0705   17.3996 C   0  0  0  0  0  0  0  0  0  0  0  0
    4.6223   -8.3832   16.5030 C   0  0  0  0  0  0  0  0  0  0  0  0
   12.4690   -5.2624   19.9024 C   0  0  0  0  0  0  0  0  0  0  0  0
    3.2548   -9.9919   17.4189 C   0  0  0  0  0  0  0  0  0  0  0  0
   12.4767   -4.7393   22.1790 C   0  0  0  0  0  0  0  0  0  0  0  0
    7.8593   -5.3772   15.3569 N   0  0  0  0  0  0  0  0  0  0  0  0
    7.4412   -6.9038   16.9283 C   0  0  0  0  0  0  0  0  0  0  0  0
  1 21  4  0
  1 23  4  0
  2  5  1  0
  2 13  4  0
  2 16  4  0
  3  6  4  0
  3  7  4  0
  4 13  4  0
  4 19  4  0
  4 24  4  0
  6 23  4  0
  7 16  1  0
  7 21  4  0
  8 18  1  0
  9 20  4  0
  9 22  4  0
 10 17  1  0
 10 25  1  0
 11 16  4  0
 11 19  4  0
 12 15  4  0
 12 22  4  0
 14 24  4  0
 14 25  4  0
 15 17  4  0
 17 20  4  0
 18 23  1  0
 19 25  4  0
M  END
$$$$

 Created by Python create_sdf_string function

 25 28  0  0  0  0  0  0  0  0999 V2000
   13.1533   -5.2399   21.0682 C   0  0  0  0  0  0  0  0  0  0  0  0
   10.4729   -4.0295   17.6135 C   0  0  0  0  0  0  0  0  0  0  0  0
   10.4789   -4.3641   20.9564 C   0  0  0  0  0  0  0  0  0  0  0  0
    8.7421   -5.1412   16.3650 C   0  0  0  0  0  0  0  0  0  0  0  0
   11.4353   -2.9204   17.8044 C   0  0  0  0  0  0  0  0  0  0  0  0
   11.1529   -4.3028   22.1277 C   0  0  0  0  0  0  0  0  0  0  0  0
   11.1290   -4.8502   19.8052 C   0  0  0  0  0  0  0  0  0  0  0  0
   12.4329   -4.2159   24.4224 C   0  0  0  0  0  0  0  0  0  0  0  0
    3.4740   -9.0387   16.5022 C   0  0  0  0  0  0  0  0  0  0  0  0
    6.8384   -7.9290   17.5282 N   0  0  0  0  0  0  0  0  0  0  0  0
    9.4126   -5.9853   18.4899 C   0  0  0  0  0  0  0  0  0  0  0  0
    4.2064  -10.3242   18.3302 C   0  0  0  0  0  0  0  0  0  0  0  0
    9.6599   -4.1551   16.4796 N   0  0  0  0  0  0  0  0  0  0  0  0
    7.0644   -6.4612   15.7375 N   0  0  0  0  0  0  0  0  0  0  0  0
    5.3549   -9.6322   18.3190 C   0  0  0  0  0  0  0  0  0  0  0  0
   10.3704   -4.9638   18.6510 C   0  0  0  0  0  0  0  0  0  0  0  0
    5.5935   -8.6419   17.4234 C   0  0  0  0  0  0  0  0  0  0  0  0
   13.0726   -4.6648   23.3394 O   0  0  0  0  0  0  0  0  0  0  0  0
    8.5955   -6.0705   17.3996 C   0  0  0  0  0  0  0  0  0  0  0  0
    4.6223   -8.3832   16.5030 C   0  0  0  0  0  0  0  0  0  0  0  0
   12.4690   -5.2624   19.9024 C   0  0  0  0  0  0  0  0  0  0  0  0
    3.2548   -9.9919   17.4189 C   0  0  0  0  0  0  0  0  0  0  0  0
   12.4767   -4.7393   22.1790 C   0  0  0  0  0  0  0  0  0  0  0  0
    7.8593   -5.3772   15.3569 N   0  0  0  0  0  0  0  0  0  0  0  0
    7.4412   -6.9038   16.9283 C   0  0  0  0  0  0  0  0  0  0  0  0
  1 21  4  0
  1 23  4  0
  2  5  1  0
  2 13  4  0
  2 16  4  0
  3  6  4  0
  3  7  4  0
  4 13  4  0
  4 19  4  0
  4 24  4  0
  6 23  4  0
  7 16  1  0
  7 21  4  0
  8 18  1  0
  9 20  4  0
  9 22  4  0
 10 17  1  0
 10 25  1  0
 11 16  4  0
 11 19  4  0
 12 15  4  0
 12 22  4  0
 14 24  4  0
 14 25  4  0
 15 17  4  0
 17 20  4  0
 18 23  1  0
 19 25  4  0
M  END
$$$$

 Created by Python create_sdf_string function

 25 28  0  0  0  0  0  0  0  0999 V2000
   13.1533   -5.2399   21.0682 C   0  0  0  0  0  0  0  0  0  0  0  0
   10.4729   -4.0295   17.6135 C   0  0  0  0  0  0  0  0  0  0  0  0
   10.4789   -4.3641   20.9564 C   0  0  0  0  0  0  0  0  0  0  0  0
    8.7421   -5.1412   16.3650 C   0  0  0  0  0  0  0  0  0  0  0  0
   11.4353   -2.9204   17.8044 C   0  0  0  0  0  0  0  0  0  0  0  0
   11.1529   -4.3028   22.1277 C   0  0  0  0  0  0  0  0  0  0  0  0
   11.1290   -4.8502   19.8052 C   0  0  0  0  0  0  0  0  0  0  0  0
   12.4329   -4.2159   24.4224 C   0  0  0  0  0  0  0  0  0  0  0  0
    3.4740   -9.0387   16.5022 C   0  0  0  0  0  0  0  0  0  0  0  0
    6.8384   -7.9290   17.5282 N   0  0  0  0  0  0  0  0  0  0  0  0
    9.4126   -5.9853   18.4899 C   0  0  0  0  0  0  0  0  0  0  0  0
    4.2064  -10.3242   18.3302 C   0  0  0  0  0  0  0  0  0  0  0  0
    9.6599   -4.1551   16.4796 N   0  0  0  0  0  0  0  0  0  0  0  0
    7.0644   -6.4612   15.7375 N   0  0  0  0  0  0  0  0  0  0  0  0
    5.3549   -9.6322   18.3190 C   0  0  0  0  0  0  0  0  0  0  0  0
   10.3704   -4.9638   18.6510 C   0  0  0  0  0  0  0  0  0  0  0  0
    5.5935   -8.6419   17.4234 C   0  0  0  0  0  0  0  0  0  0  0  0
   13.0726   -4.6648   23.3394 O   0  0  0  0  0  0  0  0  0  0  0  0
    8.5955   -6.0705   17.3996 C   0  0  0  0  0  0  0  0  0  0  0  0
    4.6223   -8.3832   16.5030 C   0  0  0  0  0  0  0  0  0  0  0  0
   12.4690   -5.2624   19.9024 C   0  0  0  0  0  0  0  0  0  0  0  0
    3.2548   -9.9919   17.4189 C   0  0  0  0  0  0  0  0  0  0  0  0
   12.4767   -4.7393   22.1790 C   0  0  0  0  0  0  0  0  0  0  0  0
    7.8593   -5.3772   15.3569 N   0  0  0  0  0  0  0  0  0  0  0  0
    7.4412   -6.9038   16.9283 C   0  0  0  0  0  0  0  0  0  0  0  0
  1 21  4  0
  1 23  4  0
  2  5  1  0
  2 13  4  0
  2 16  4  0
  3  6  4  0
  3  7  4  0
  4 13  4  0
  4 19  4  0
  4 24  4  0
  6 23  4  0
  7 16  1  0
  7 21  4  0
  8 18  1  0
  9 20  4  0
  9 22  4  0
 10 17  1  0
 10 25  1  0
 11 16  4  0
 11 19  4  0
 12 15  4  0
 12 22  4  0
 14 24  4  0
 14 25  4  0
 15 17  4  0
 17 20  4  0
 18 23  1  0
 19 25  4  0
M  END
$$$$

 Created by Python create_sdf_string function

 25 28  0  0  0  0  0  0  0  0999 V2000
   13.1533   -5.2399   21.0682 C   0  0  0  0  0  0  0  0  0  0  0  0
   10.4729   -4.0295   17.6135 C   0  0  0  0  0  0  0  0  0  0  0  0
   10.4789   -4.3641   20.9564 C   0  0  0  0  0  0  0  0  0  0  0  0
    8.7421   -5.1412   16.3650 C   0  0  0  0  0  0  0  0  0  0  0  0
   11.4353   -2.9204   17.8044 C   0  0  0  0  0  0  0  0  0  0  0  0
   11.1529   -4.3028   22.1277 C   0  0  0  0  0  0  0  0  0  0  0  0
   11.1290   -4.8502   19.8052 C   0  0  0  0  0  0  0  0  0  0  0  0
   12.4329   -4.2159   24.4224 C   0  0  0  0  0  0  0  0  0  0  0  0
    3.4740   -9.0387   16.5022 C   0  0  0  0  0  0  0  0  0  0  0  0
    6.8384   -7.9290   17.5282 N   0  0  0  0  0  0  0  0  0  0  0  0
    9.4126   -5.9853   18.4899 C   0  0  0  0  0  0  0  0  0  0  0  0
    4.2064  -10.3242   18.3302 C   0  0  0  0  0  0  0  0  0  0  0  0
    9.6599   -4.1551   16.4796 N   0  0  0  0  0  0  0  0  0  0  0  0
    7.0644   -6.4612   15.7375 N   0  0  0  0  0  0  0  0  0  0  0  0
    5.3549   -9.6322   18.3190 C   0  0  0  0  0  0  0  0  0  0  0  0
   10.3704   -4.9638   18.6510 C   0  0  0  0  0  0  0  0  0  0  0  0
    5.5935   -8.6419   17.4234 C   0  0  0  0  0  0  0  0  0  0  0  0
   13.0726   -4.6648   23.3394 O   0  0  0  0  0  0  0  0  0  0  0  0
    8.5955   -6.0705   17.3996 C   0  0  0  0  0  0  0  0  0  0  0  0
    4.6223   -8.3832   16.5030 C   0  0  0  0  0  0  0  0  0  0  0  0
   12.4690   -5.2624   19.9024 C   0  0  0  0  0  0  0  0  0  0  0  0
    3.2548   -9.9919   17.4189 C   0  0  0  0  0  0  0  0  0  0  0  0
   12.4767   -4.7393   22.1790 C   0  0  0  0  0  0  0  0  0  0  0  0
    7.8593   -5.3772   15.3569 N   0  0  0  0  0  0  0  0  0  0  0  0
    7.4412   -6.9038   16.9283 C   0  0  0  0  0  0  0  0  0  0  0  0
  1 21  4  0
  1 23  4  0
  2  5  1  0
  2 13  4  0
  2 16  4  0
  3  6  4  0
  3  7  4  0
  4 13  4  0
  4 19  4  0
  4 24  4  0
  6 23  4  0
  7 16  1  0
  7 21  4  0
  8 18  1  0
  9 20  4  0
  9 22  4  0
 10 17  1  0
 10 25  1  0
 11 16  4  0
 11 19  4  0
 12 15  4  0
 12 22  4  0
 14 24  4  0
 14 25  4  0
 15 17  4  0
 17 20  4  0
 18 23  1  0
 19 25  4  0
M  END
$$$$

 Created by Python create_sdf_string function

 25 28  0  0  0  0  0  0  0  0999 V2000
   13.1533   -5.2399   21.0682 C   0  0  0  0  0  0  0  0  0  0  0  0
   10.4729   -4.0295   17.6135 C   0  0  0  0  0  0  0  0  0  0  0  0
   10.4789   -4.3641   20.9564 C   0  0  0  0  0  0  0  0  0  0  0  0
    8.7421   -5.1412   16.3650 C   0  0  0  0  0  0  0  0  0  0  0  0
   11.4353   -2.9204   17.8044 C   0  0  0  0  0  0  0  0  0  0  0  0
   11.1529   -4.3028   22.1277 C   0  0  0  0  0  0  0  0  0  0  0  0
   11.1290   -4.8502   19.8052 C   0  0  0  0  0  0  0  0  0  0  0  0
   12.4329   -4.2159   24.4224 C   0  0  0  0  0  0  0  0  0  0  0  0
    3.4740   -9.0387   16.5022 C   0  0  0  0  0  0  0  0  0  0  0  0
    6.8384   -7.9290   17.5282 N   0  0  0  0  0  0  0  0  0  0  0  0
    9.4126   -5.9853   18.4899 C   0  0  0  0  0  0  0  0  0  0  0  0
    4.2064  -10.3242   18.3302 C   0  0  0  0  0  0  0  0  0  0  0  0
    9.6599   -4.1551   16.4796 N   0  0  0  0  0  0  0  0  0  0  0  0
    7.0644   -6.4612   15.7375 N   0  0  0  0  0  0  0  0  0  0  0  0
    5.3549   -9.6322   18.3190 C   0  0  0  0  0  0  0  0  0  0  0  0
   10.3704   -4.9638   18.6510 C   0  0  0  0  0  0  0  0  0  0  0  0
    5.5935   -8.6419   17.4234 C   0  0  0  0  0  0  0  0  0  0  0  0
   13.0726   -4.6648   23.3394 O   0  0  0  0  0  0  0  0  0  0  0  0
    8.5955   -6.0705   17.3996 C   0  0  0  0  0  0  0  0  0  0  0  0
    4.6223   -8.3832   16.5030 C   0  0  0  0  0  0  0  0  0  0  0  0
   12.4690   -5.2624   19.9024 C   0  0  0  0  0  0  0  0  0  0  0  0
    3.2548   -9.9919   17.4189 C   0  0  0  0  0  0  0  0  0  0  0  0
   12.4767   -4.7393   22.1790 C   0  0  0  0  0  0  0  0  0  0  0  0
    7.8593   -5.3772   15.3569 N   0  0  0  0  0  0  0  0  0  0  0  0
    7.4412   -6.9038   16.9283 C   0  0  0  0  0  0  0  0  0  0  0  0
  1 21  4  0
  1 23  4  0
  2  5  1  0
  2 13  4  0
  2 16  4  0
  3  6  4  0
  3  7  4  0
  4 13  4  0
  4 19  4  0
  4 24  4  0
  6 23  4  0
  7 16  1  0
  7 21  4  0
  8 18  1  0
  9 20  4  0
  9 22  4  0
 10 17  1  0
 10 25  1  0
 11 16  4  0
 11 19  4  0
 12 15  4  0
 12 22  4  0
 14 24  4  0
 14 25  4  0
 15 17  4  0
 17 20  4  0
 18 23  1  0
 19 25  4  0
M  END
$$$$

 Created by Python create_sdf_string function

 25 28  0  0  0  0  0  0  0  0999 V2000
   13.1533   -5.2399   21.0682 C   0  0  0  0  0  0  0  0  0  0  0  0
   10.4729   -4.0295   17.6135 C   0  0  0  0  0  0  0  0  0  0  0  0
   10.4789   -4.3641   20.9564 C   0  0  0  0  0  0  0  0  0  0  0  0
    8.7421   -5.1412   16.3650 C   0  0  0  0  0  0  0  0  0  0  0  0
   11.4353   -2.9204   17.8044 C   0  0  0  0  0  0  0  0  0  0  0  0
   11.1529   -4.3028   22.1277 C   0  0  0  0  0  0  0  0  0  0  0  0
   11.1290   -4.8502   19.8052 C   0  0  0  0  0  0  0  0  0  0  0  0
   12.4329   -4.2159   24.4224 C   0  0  0  0  0  0  0  0  0  0  0  0
    3.4740   -9.0387   16.5022 C   0  0  0  0  0  0  0  0  0  0  0  0
    6.8384   -7.9290   17.5282 N   0  0  0  0  0  0  0  0  0  0  0  0
    9.4126   -5.9853   18.4899 C   0  0  0  0  0  0  0  0  0  0  0  0
    4.2064  -10.3242   18.3302 C   0  0  0  0  0  0  0  0  0  0  0  0
    9.6599   -4.1551   16.4796 N   0  0  0  0  0  0  0  0  0  0  0  0
    7.0644   -6.4612   15.7375 N   0  0  0  0  0  0  0  0  0  0  0  0
    5.3549   -9.6322   18.3190 C   0  0  0  0  0  0  0  0  0  0  0  0
   10.3704   -4.9638   18.6510 C   0  0  0  0  0  0  0  0  0  0  0  0
    5.5935   -8.6419   17.4234 C   0  0  0  0  0  0  0  0  0  0  0  0
   13.0726   -4.6648   23.3394 O   0  0  0  0  0  0  0  0  0  0  0  0
    8.5955   -6.0705   17.3996 C   0  0  0  0  0  0  0  0  0  0  0  0
    4.6223   -8.3832   16.5030 C   0  0  0  0  0  0  0  0  0  0  0  0
   12.4690   -5.2624   19.9024 C   0  0  0  0  0  0  0  0  0  0  0  0
    3.2548   -9.9919   17.4189 C   0  0  0  0  0  0  0  0  0  0  0  0
   12.4767   -4.7393   22.1790 C   0  0  0  0  0  0  0  0  0  0  0  0
    7.8593   -5.3772   15.3569 N   0  0  0  0  0  0  0  0  0  0  0  0
    7.4412   -6.9038   16.9283 C   0  0  0  0  0  0  0  0  0  0  0  0
  1 21  4  0
  1 23  4  0
  2  5  1  0
  2 13  4  0
  2 16  4  0
  3  6  4  0
  3  7  4  0
  4 13  4  0
  4 19  4  0
  4 24  4  0
  6 23  4  0
  7 16  1  0
  7 21  4  0
  8 18  1  0
  9 20  4  0
  9 22  4  0
 10 17  1  0
 10 25  1  0
 11 16  4  0
 11 19  4  0
 12 15  4  0
 12 22  4  0
 14 24  4  0
 14 25  4  0
 15 17  4  0
 17 20  4  0
 18 23  1  0
 19 25  4  0
M  END
$$$$

 Created by Python create_sdf_string function

 25 28  0  0  0  0  0  0  0  0999 V2000
   13.1533   -5.2399   21.0682 C   0  0  0  0  0  0  0  0  0  0  0  0
   10.4729   -4.0295   17.6135 C   0  0  0  0  0  0  0  0  0  0  0  0
   10.4789   -4.3641   20.9564 C   0  0  0  0  0  0  0  0  0  0  0  0
    8.7421   -5.1412   16.3650 C   0  0  0  0  0  0  0  0  0  0  0  0
   11.4353   -2.9204   17.8044 C   0  0  0  0  0  0  0  0  0  0  0  0
   11.1529   -4.3028   22.1277 C   0  0  0  0  0  0  0  0  0  0  0  0
   11.1290   -4.8502   19.8052 C   0  0  0  0  0  0  0  0  0  0  0  0
   12.4329   -4.2159   24.4224 C   0  0  0  0  0  0  0  0  0  0  0  0
    3.4740   -9.0387   16.5022 C   0  0  0  0  0  0  0  0  0  0  0  0
    6.8384   -7.9290   17.5282 N   0  0  0  0  0  0  0  0  0  0  0  0
    9.4126   -5.9853   18.4899 C   0  0  0  0  0  0  0  0  0  0  0  0
    4.2064  -10.3242   18.3302 C   0  0  0  0  0  0  0  0  0  0  0  0
    9.6599   -4.1551   16.4796 N   0  0  0  0  0  0  0  0  0  0  0  0
    7.0644   -6.4612   15.7375 N   0  0  0  0  0  0  0  0  0  0  0  0
    5.3549   -9.6322   18.3190 C   0  0  0  0  0  0  0  0  0  0  0  0
   10.3704   -4.9638   18.6510 C   0  0  0  0  0  0  0  0  0  0  0  0
    5.5935   -8.6419   17.4234 C   0  0  0  0  0  0  0  0  0  0  0  0
   13.0726   -4.6648   23.3394 O   0  0  0  0  0  0  0  0  0  0  0  0
    8.5955   -6.0705   17.3996 C   0  0  0  0  0  0  0  0  0  0  0  0
    4.6223   -8.3832   16.5030 C   0  0  0  0  0  0  0  0  0  0  0  0
   12.4690   -5.2624   19.9024 C   0  0  0  0  0  0  0  0  0  0  0  0
    3.2548   -9.9919   17.4189 C   0  0  0  0  0  0  0  0  0  0  0  0
   12.4767   -4.7393   22.1790 C   0  0  0  0  0  0  0  0  0  0  0  0
    7.8593   -5.3772   15.3569 N   0  0  0  0  0  0  0  0  0  0  0  0
    7.4412   -6.9038   16.9283 C   0  0  0  0  0  0  0  0  0  0  0  0
  1 21  4  0
  1 23  4  0
  2  5  1  0
  2 13  4  0
  2 16  4  0
  3  6  4  0
  3  7  4  0
  4 13  4  0
  4 19  4  0
  4 24  4  0
  6 23  4  0
  7 16  1  0
  7 21  4  0
  8 18  1  0
  9 20  4  0
  9 22  4  0
 10 17  1  0
 10 25  1  0
 11 16  4  0
 11 19  4  0
 12 15  4  0
 12 22  4  0
 14 24  4  0
 14 25  4  0
 15 17  4  0
 17 20  4  0
 18 23  1  0
 19 25  4  0
M  END
$$$$

 Created by Python create_sdf_string function

 25 28  0  0  0  0  0  0  0  0999 V2000
   13.1533   -5.2399   21.0682 C   0  0  0  0  0  0  0  0  0  0  0  0
   10.4729   -4.0295   17.6135 C   0  0  0  0  0  0  0  0  0  0  0  0
   10.4789   -4.3641   20.9564 C   0  0  0  0  0  0  0  0  0  0  0  0
    8.7421   -5.1412   16.3650 C   0  0  0  0  0  0  0  0  0  0  0  0
   11.4353   -2.9204   17.8044 C   0  0  0  0  0  0  0  0  0  0  0  0
   11.1529   -4.3028   22.1277 C   0  0  0  0  0  0  0  0  0  0  0  0
   11.1290   -4.8502   19.8052 C   0  0  0  0  0  0  0  0  0  0  0  0
   12.4329   -4.2159   24.4224 C   0  0  0  0  0  0  0  0  0  0  0  0
    3.4740   -9.0387   16.5022 C   0  0  0  0  0  0  0  0  0  0  0  0
    6.8384   -7.9290   17.5282 N   0  0  0  0  0  0  0  0  0  0  0  0
    9.4126   -5.9853   18.4899 C   0  0  0  0  0  0  0  0  0  0  0  0
    4.2064  -10.3242   18.3302 C   0  0  0  0  0  0  0  0  0  0  0  0
    9.6599   -4.1551   16.4796 N   0  0  0  0  0  0  0  0  0  0  0  0
    7.0644   -6.4612   15.7375 N   0  0  0  0  0  0  0  0  0  0  0  0
    5.3549   -9.6322   18.3190 C   0  0  0  0  0  0  0  0  0  0  0  0
   10.3704   -4.9638   18.6510 C   0  0  0  0  0  0  0  0  0  0  0  0
    5.5935   -8.6419   17.4234 C   0  0  0  0  0  0  0  0  0  0  0  0
   13.0726   -4.6648   23.3394 O   0  0  0  0  0  0  0  0  0  0  0  0
    8.5955   -6.0705   17.3996 C   0  0  0  0  0  0  0  0  0  0  0  0
    4.6223   -8.3832   16.5030 C   0  0  0  0  0  0  0  0  0  0  0  0
   12.4690   -5.2624   19.9024 C   0  0  0  0  0  0  0  0  0  0  0  0
    3.2548   -9.9919   17.4189 C   0  0  0  0  0  0  0  0  0  0  0  0
   12.4767   -4.7393   22.1790 C   0  0  0  0  0  0  0  0  0  0  0  0
    7.8593   -5.3772   15.3569 N   0  0  0  0  0  0  0  0  0  0  0  0
    7.4412   -6.9038   16.9283 C   0  0  0  0  0  0  0  0  0  0  0  0
  1 21  4  0
  1 23  4  0
  2  5  1  0
  2 13  4  0
  2 16  4  0
  3  6  4  0
  3  7  4  0
  4 13  4  0
  4 19  4  0
  4 24  4  0
  6 23  4  0
  7 16  1  0
  7 21  4  0
  8 18  1  0
  9 20  4  0
  9 22  4  0
 10 17  1  0
 10 25  1  0
 11 16  4  0
 11 19  4  0
 12 15  4  0
 12 22  4  0
 14 24  4  0
 14 25  4  0
 15 17  4  0
 17 20  4  0
 18 23  1  0
 19 25  4  0
M  END
$$$$

 Created by Python create_sdf_string function

 25 28  0  0  0  0  0  0  0  0999 V2000
   13.1533   -5.2399   21.0682 C   0  0  0  0  0  0  0  0  0  0  0  0
   10.4729   -4.0295   17.6135 C   0  0  0  0  0  0  0  0  0  0  0  0
   10.4789   -4.3641   20.9564 C   0  0  0  0  0  0  0  0  0  0  0  0
    8.7421   -5.1412   16.3650 C   0  0  0  0  0  0  0  0  0  0  0  0
   11.4353   -2.9204   17.8044 C   0  0  0  0  0  0  0  0  0  0  0  0
   11.1529   -4.3028   22.1277 C   0  0  0  0  0  0  0  0  0  0  0  0
   11.1290   -4.8502   19.8052 C   0  0  0  0  0  0  0  0  0  0  0  0
   12.4329   -4.2159   24.4224 C   0  0  0  0  0  0  0  0  0  0  0  0
    3.4740   -9.0387   16.5022 C   0  0  0  0  0  0  0  0  0  0  0  0
    6.8384   -7.9290   17.5282 N   0  0  0  0  0  0  0  0  0  0  0  0
    9.4126   -5.9853   18.4899 C   0  0  0  0  0  0  0  0  0  0  0  0
    4.2064  -10.3242   18.3302 C   0  0  0  0  0  0  0  0  0  0  0  0
    9.6599   -4.1551   16.4796 N   0  0  0  0  0  0  0  0  0  0  0  0
    7.0644   -6.4612   15.7375 N   0  0  0  0  0  0  0  0  0  0  0  0
    5.3549   -9.6322   18.3190 C   0  0  0  0  0  0  0  0  0  0  0  0
   10.3704   -4.9638   18.6510 C   0  0  0  0  0  0  0  0  0  0  0  0
    5.5935   -8.6419   17.4234 C   0  0  0  0  0  0  0  0  0  0  0  0
   13.0726   -4.6648   23.3394 O   0  0  0  0  0  0  0  0  0  0  0  0
    8.5955   -6.0705   17.3996 C   0  0  0  0  0  0  0  0  0  0  0  0
    4.6223   -8.3832   16.5030 C   0  0  0  0  0  0  0  0  0  0  0  0
   12.4690   -5.2624   19.9024 C   0  0  0  0  0  0  0  0  0  0  0  0
    3.2548   -9.9919   17.4189 C   0  0  0  0  0  0  0  0  0  0  0  0
   12.4767   -4.7393   22.1790 C   0  0  0  0  0  0  0  0  0  0  0  0
    7.8593   -5.3772   15.3569 N   0  0  0  0  0  0  0  0  0  0  0  0
    7.4412   -6.9038   16.9283 C   0  0  0  0  0  0  0  0  0  0  0  0
  1 21  4  0
  1 23  4  0
  2  5  1  0
  2 13  4  0
  2 16  4  0
  3  6  4  0
  3  7  4  0
  4 13  4  0
  4 19  4  0
  4 24  4  0
  6 23  4  0
  7 16  1  0
  7 21  4  0
  8 18  1  0
  9 20  4  0
  9 22  4  0
 10 17  1  0
 10 25  1  0
 11 16  4  0
 11 19  4  0
 12 15  4  0
 12 22  4  0
 14 24  4  0
 14 25  4  0
 15 17  4  0
 17 20  4  0
 18 23  1  0
 19 25  4  0
M  END
$$$$

 Created by Python create_sdf_string function

 25 28  0  0  0  0  0  0  0  0999 V2000
   13.1533   -5.2399   21.0682 C   0  0  0  0  0  0  0  0  0  0  0  0
   10.4729   -4.0295   17.6135 C   0  0  0  0  0  0  0  0  0  0  0  0
   10.4789   -4.3641   20.9564 C   0  0  0  0  0  0  0  0  0  0  0  0
    8.7421   -5.1412   16.3650 C   0  0  0  0  0  0  0  0  0  0  0  0
   11.4353   -2.9204   17.8044 C   0  0  0  0  0  0  0  0  0  0  0  0
   11.1529   -4.3028   22.1277 C   0  0  0  0  0  0  0  0  0  0  0  0
   11.1290   -4.8502   19.8052 C   0  0  0  0  0  0  0  0  0  0  0  0
   12.4329   -4.2159   24.4224 C   0  0  0  0  0  0  0  0  0  0  0  0
    3.4740   -9.0387   16.5022 C   0  0  0  0  0  0  0  0  0  0  0  0
    6.8384   -7.9290   17.5282 N   0  0  0  0  0  0  0  0  0  0  0  0
    9.4126   -5.9853   18.4899 C   0  0  0  0  0  0  0  0  0  0  0  0
    4.2064  -10.3242   18.3302 C   0  0  0  0  0  0  0  0  0  0  0  0
    9.6599   -4.1551   16.4796 N   0  0  0  0  0  0  0  0  0  0  0  0
    7.0644   -6.4612   15.7375 N   0  0  0  0  0  0  0  0  0  0  0  0
    5.3549   -9.6322   18.3190 C   0  0  0  0  0  0  0  0  0  0  0  0
   10.3704   -4.9638   18.6510 C   0  0  0  0  0  0  0  0  0  0  0  0
    5.5935   -8.6419   17.4234 C   0  0  0  0  0  0  0  0  0  0  0  0
   13.0726   -4.6648   23.3394 O   0  0  0  0  0  0  0  0  0  0  0  0
    8.5955   -6.0705   17.3996 C   0  0  0  0  0  0  0  0  0  0  0  0
    4.6223   -8.3832   16.5030 C   0  0  0  0  0  0  0  0  0  0  0  0
   12.4690   -5.2624   19.9024 C   0  0  0  0  0  0  0  0  0  0  0  0
    3.2548   -9.9919   17.4189 C   0  0  0  0  0  0  0  0  0  0  0  0
   12.4767   -4.7393   22.1790 C   0  0  0  0  0  0  0  0  0  0  0  0
    7.8593   -5.3772   15.3569 N   0  0  0  0  0  0  0  0  0  0  0  0
    7.4412   -6.9038   16.9283 C   0  0  0  0  0  0  0  0  0  0  0  0
  1 21  4  0
  1 23  4  0
  2  5  1  0
  2 13  4  0
  2 16  4  0
  3  6  4  0
  3  7  4  0
  4 13  4  0
  4 19  4  0
  4 24  4  0
  6 23  4  0
  7 16  1  0
  7 21  4  0
  8 18  1  0
  9 20  4  0
  9 22  4  0
 10 17  1  0
 10 25  1  0
 11 16  4  0
 11 19  4  0
 12 15  4  0
 12 22  4  0
 14 24  4  0
 14 25  4  0
 15 17  4  0
 17 20  4  0
 18 23  1  0
 19 25  4  0
M  END
$$$$

 Created by Python create_sdf_string function

 25 28  0  0  0  0  0  0  0  0999 V2000
   13.1533   -5.2399   21.0682 C   0  0  0  0  0  0  0  0  0  0  0  0
   10.4729   -4.0295   17.6135 C   0  0  0  0  0  0  0  0  0  0  0  0
   10.4789   -4.3641   20.9564 C   0  0  0  0  0  0  0  0  0  0  0  0
    8.7421   -5.1412   16.3650 C   0  0  0  0  0  0  0  0  0  0  0  0
   11.4353   -2.9204   17.8044 C   0  0  0  0  0  0  0  0  0  0  0  0
   11.1529   -4.3028   22.1277 C   0  0  0  0  0  0  0  0  0  0  0  0
   11.1290   -4.8502   19.8052 C   0  0  0  0  0  0  0  0  0  0  0  0
   12.4329   -4.2159   24.4224 C   0  0  0  0  0  0  0  0  0  0  0  0
    3.4740   -9.0387   16.5022 C   0  0  0  0  0  0  0  0  0  0  0  0
    6.8384   -7.9290   17.5282 N   0  0  0  0  0  0  0  0  0  0  0  0
    9.4126   -5.9853   18.4899 C   0  0  0  0  0  0  0  0  0  0  0  0
    4.2064  -10.3242   18.3302 C   0  0  0  0  0  0  0  0  0  0  0  0
    9.6599   -4.1551   16.4796 N   0  0  0  0  0  0  0  0  0  0  0  0
    7.0644   -6.4612   15.7375 N   0  0  0  0  0  0  0  0  0  0  0  0
    5.3549   -9.6322   18.3190 C   0  0  0  0  0  0  0  0  0  0  0  0
   10.3704   -4.9638   18.6510 C   0  0  0  0  0  0  0  0  0  0  0  0
    5.5935   -8.6419   17.4234 C   0  0  0  0  0  0  0  0  0  0  0  0
   13.0726   -4.6648   23.3394 O   0  0  0  0  0  0  0  0  0  0  0  0
    8.5955   -6.0705   17.3996 C   0  0  0  0  0  0  0  0  0  0  0  0
    4.6223   -8.3832   16.5030 C   0  0  0  0  0  0  0  0  0  0  0  0
   12.4690   -5.2624   19.9024 C   0  0  0  0  0  0  0  0  0  0  0  0
    3.2548   -9.9919   17.4189 C   0  0  0  0  0  0  0  0  0  0  0  0
   12.4767   -4.7393   22.1790 C   0  0  0  0  0  0  0  0  0  0  0  0
    7.8593   -5.3772   15.3569 N   0  0  0  0  0  0  0  0  0  0  0  0
    7.4412   -6.9038   16.9283 C   0  0  0  0  0  0  0  0  0  0  0  0
  1 21  4  0
  1 23  4  0
  2  5  1  0
  2 13  4  0
  2 16  4  0
  3  6  4  0
  3  7  4  0
  4 13  4  0
  4 19  4  0
  4 24  4  0
  6 23  4  0
  7 16  1  0
  7 21  4  0
  8 18  1  0
  9 20  4  0
  9 22  4  0
 10 17  1  0
 10 25  1  0
 11 16  4  0
 11 19  4  0
 12 15  4  0
 12 22  4  0
 14 24  4  0
 14 25  4  0
 15 17  4  0
 17 20  4  0
 18 23  1  0
 19 25  4  0
M  END
$$$$

 Created by Python create_sdf_string function

 25 28  0  0  0  0  0  0  0  0999 V2000
   13.1533   -5.2399   21.0682 C   0  0  0  0  0  0  0  0  0  0  0  0
   10.4729   -4.0295   17.6135 C   0  0  0  0  0  0  0  0  0  0  0  0
   10.4789   -4.3641   20.9564 C   0  0  0  0  0  0  0  0  0  0  0  0
    8.7421   -5.1412   16.3650 C   0  0  0  0  0  0  0  0  0  0  0  0
   11.4353   -2.9204   17.8044 C   0  0  0  0  0  0  0  0  0  0  0  0
   11.1529   -4.3028   22.1277 C   0  0  0  0  0  0  0  0  0  0  0  0
   11.1290   -4.8502   19.8052 C   0  0  0  0  0  0  0  0  0  0  0  0
   12.4329   -4.2159   24.4224 C   0  0  0  0  0  0  0  0  0  0  0  0
    3.4740   -9.0387   16.5022 C   0  0  0  0  0  0  0  0  0  0  0  0
    6.8384   -7.9290   17.5282 N   0  0  0  0  0  0  0  0  0  0  0  0
    9.4126   -5.9853   18.4899 C   0  0  0  0  0  0  0  0  0  0  0  0
    4.2064  -10.3242   18.3302 C   0  0  0  0  0  0  0  0  0  0  0  0
    9.6599   -4.1551   16.4796 N   0  0  0  0  0  0  0  0  0  0  0  0
    7.0644   -6.4612   15.7375 N   0  0  0  0  0  0  0  0  0  0  0  0
    5.3549   -9.6322   18.3190 C   0  0  0  0  0  0  0  0  0  0  0  0
   10.3704   -4.9638   18.6510 C   0  0  0  0  0  0  0  0  0  0  0  0
    5.5935   -8.6419   17.4234 C   0  0  0  0  0  0  0  0  0  0  0  0
   13.0726   -4.6648   23.3394 O   0  0  0  0  0  0  0  0  0  0  0  0
    8.5955   -6.0705   17.3996 C   0  0  0  0  0  0  0  0  0  0  0  0
    4.6223   -8.3832   16.5030 C   0  0  0  0  0  0  0  0  0  0  0  0
   12.4690   -5.2624   19.9024 C   0  0  0  0  0  0  0  0  0  0  0  0
    3.2548   -9.9919   17.4189 C   0  0  0  0  0  0  0  0  0  0  0  0
   12.4767   -4.7393   22.1790 C   0  0  0  0  0  0  0  0  0  0  0  0
    7.8593   -5.3772   15.3569 N   0  0  0  0  0  0  0  0  0  0  0  0
    7.4412   -6.9038   16.9283 C   0  0  0  0  0  0  0  0  0  0  0  0
  1 21  4  0
  1 23  4  0
  2  5  1  0
  2 13  4  0
  2 16  4  0
  3  6  4  0
  3  7  4  0
  4 13  4  0
  4 19  4  0
  4 24  4  0
  6 23  4  0
  7 16  1  0
  7 21  4  0
  8 18  1  0
  9 20  4  0
  9 22  4  0
 10 17  1  0
 10 25  1  0
 11 16  4  0
 11 19  4  0
 12 15  4  0
 12 22  4  0
 14 24  4  0
 14 25  4  0
 15 17  4  0
 17 20  4  0
 18 23  1  0
 19 25  4  0
M  END
$$$$

 Created by Python create_sdf_string function

 25 28  0  0  0  0  0  0  0  0999 V2000
   13.1533   -5.2399   21.0682 C   0  0  0  0  0  0  0  0  0  0  0  0
   10.4729   -4.0295   17.6135 C   0  0  0  0  0  0  0  0  0  0  0  0
   10.4789   -4.3641   20.9564 C   0  0  0  0  0  0  0  0  0  0  0  0
    8.7421   -5.1412   16.3650 C   0  0  0  0  0  0  0  0  0  0  0  0
   11.4353   -2.9204   17.8044 C   0  0  0  0  0  0  0  0  0  0  0  0
   11.1529   -4.3028   22.1277 C   0  0  0  0  0  0  0  0  0  0  0  0
   11.1290   -4.8502   19.8052 C   0  0  0  0  0  0  0  0  0  0  0  0
   12.4329   -4.2159   24.4224 C   0  0  0  0  0  0  0  0  0  0  0  0
    3.4740   -9.0387   16.5022 C   0  0  0  0  0  0  0  0  0  0  0  0
    6.8384   -7.9290   17.5282 N   0  0  0  0  0  0  0  0  0  0  0  0
    9.4126   -5.9853   18.4899 C   0  0  0  0  0  0  0  0  0  0  0  0
    4.2064  -10.3242   18.3302 C   0  0  0  0  0  0  0  0  0  0  0  0
    9.6599   -4.1551   16.4796 N   0  0  0  0  0  0  0  0  0  0  0  0
    7.0644   -6.4612   15.7375 N   0  0  0  0  0  0  0  0  0  0  0  0
    5.3549   -9.6322   18.3190 C   0  0  0  0  0  0  0  0  0  0  0  0
   10.3704   -4.9638   18.6510 C   0  0  0  0  0  0  0  0  0  0  0  0
    5.5935   -8.6419   17.4234 C   0  0  0  0  0  0  0  0  0  0  0  0
   13.0726   -4.6648   23.3394 O   0  0  0  0  0  0  0  0  0  0  0  0
    8.5955   -6.0705   17.3996 C   0  0  0  0  0  0  0  0  0  0  0  0
    4.6223   -8.3832   16.5030 C   0  0  0  0  0  0  0  0  0  0  0  0
   12.4690   -5.2624   19.9024 C   0  0  0  0  0  0  0  0  0  0  0  0
    3.2548   -9.9919   17.4189 C   0  0  0  0  0  0  0  0  0  0  0  0
   12.4767   -4.7393   22.1790 C   0  0  0  0  0  0  0  0  0  0  0  0
    7.8593   -5.3772   15.3569 N   0  0  0  0  0  0  0  0  0  0  0  0
    7.4412   -6.9038   16.9283 C   0  0  0  0  0  0  0  0  0  0  0  0
  1 21  4  0
  1 23  4  0
  2  5  1  0
  2 13  4  0
  2 16  4  0
  3  6  4  0
  3  7  4  0
  4 13  4  0
  4 19  4  0
  4 24  4  0
  6 23  4  0
  7 16  1  0
  7 21  4  0
  8 18  1  0
  9 20  4  0
  9 22  4  0
 10 17  1  0
 10 25  1  0
 11 16  4  0
 11 19  4  0
 12 15  4  0
 12 22  4  0
 14 24  4  0
 14 25  4  0
 15 17  4  0
 17 20  4  0
 18 23  1  0
 19 25  4  0
M  END
$$$$

 Created by Python create_sdf_string function

 25 28  0  0  0  0  0  0  0  0999 V2000
   13.1533   -5.2399   21.0682 C   0  0  0  0  0  0  0  0  0  0  0  0
   10.4729   -4.0295   17.6135 C   0  0  0  0  0  0  0  0  0  0  0  0
   10.4789   -4.3641   20.9564 C   0  0  0  0  0  0  0  0  0  0  0  0
    8.7421   -5.1412   16.3650 C   0  0  0  0  0  0  0  0  0  0  0  0
   11.4353   -2.9204   17.8044 C   0  0  0  0  0  0  0  0  0  0  0  0
   11.1529   -4.3028   22.1277 C   0  0  0  0  0  0  0  0  0  0  0  0
   11.1290   -4.8502   19.8052 C   0  0  0  0  0  0  0  0  0  0  0  0
   12.4329   -4.2159   24.4224 C   0  0  0  0  0  0  0  0  0  0  0  0
    3.4740   -9.0387   16.5022 C   0  0  0  0  0  0  0  0  0  0  0  0
    6.8384   -7.9290   17.5282 N   0  0  0  0  0  0  0  0  0  0  0  0
    9.4126   -5.9853   18.4899 C   0  0  0  0  0  0  0  0  0  0  0  0
    4.2064  -10.3242   18.3302 C   0  0  0  0  0  0  0  0  0  0  0  0
    9.6599   -4.1551   16.4796 N   0  0  0  0  0  0  0  0  0  0  0  0
    7.0644   -6.4612   15.7375 N   0  0  0  0  0  0  0  0  0  0  0  0
    5.3549   -9.6322   18.3190 C   0  0  0  0  0  0  0  0  0  0  0  0
   10.3704   -4.9638   18.6510 C   0  0  0  0  0  0  0  0  0  0  0  0
    5.5935   -8.6419   17.4234 C   0  0  0  0  0  0  0  0  0  0  0  0
   13.0726   -4.6648   23.3394 O   0  0  0  0  0  0  0  0  0  0  0  0
    8.5955   -6.0705   17.3996 C   0  0  0  0  0  0  0  0  0  0  0  0
    4.6223   -8.3832   16.5030 C   0  0  0  0  0  0  0  0  0  0  0  0
   12.4690   -5.2624   19.9024 C   0  0  0  0  0  0  0  0  0  0  0  0
    3.2548   -9.9919   17.4189 C   0  0  0  0  0  0  0  0  0  0  0  0
   12.4767   -4.7393   22.1790 C   0  0  0  0  0  0  0  0  0  0  0  0
    7.8593   -5.3772   15.3569 N   0  0  0  0  0  0  0  0  0  0  0  0
    7.4412   -6.9038   16.9283 C   0  0  0  0  0  0  0  0  0  0  0  0
  1 21  4  0
  1 23  4  0
  2  5  1  0
  2 13  4  0
  2 16  4  0
  3  6  4  0
  3  7  4  0
  4 13  4  0
  4 19  4  0
  4 24  4  0
  6 23  4  0
  7 16  1  0
  7 21  4  0
  8 18  1  0
  9 20  4  0
  9 22  4  0
 10 17  1  0
 10 25  1  0
 11 16  4  0
 11 19  4  0
 12 15  4  0
 12 22  4  0
 14 24  4  0
 14 25  4  0
 15 17  4  0
 17 20  4  0
 18 23  1  0
 19 25  4  0
M  END
$$$$

 Created by Python create_sdf_string function

 25 28  0  0  0  0  0  0  0  0999 V2000
   13.1533   -5.2399   21.0682 C   0  0  0  0  0  0  0  0  0  0  0  0
   10.4729   -4.0295   17.6135 C   0  0  0  0  0  0  0  0  0  0  0  0
   10.4789   -4.3641   20.9564 C   0  0  0  0  0  0  0  0  0  0  0  0
    8.7421   -5.1412   16.3650 C   0  0  0  0  0  0  0  0  0  0  0  0
   11.4353   -2.9204   17.8044 C   0  0  0  0  0  0  0  0  0  0  0  0
   11.1529   -4.3028   22.1277 C   0  0  0  0  0  0  0  0  0  0  0  0
   11.1290   -4.8502   19.8052 C   0  0  0  0  0  0  0  0  0  0  0  0
   12.4329   -4.2159   24.4224 C   0  0  0  0  0  0  0  0  0  0  0  0
    3.4740   -9.0387   16.5022 C   0  0  0  0  0  0  0  0  0  0  0  0
    6.8384   -7.9290   17.5282 N   0  0  0  0  0  0  0  0  0  0  0  0
    9.4126   -5.9853   18.4899 C   0  0  0  0  0  0  0  0  0  0  0  0
    4.2064  -10.3242   18.3302 C   0  0  0  0  0  0  0  0  0  0  0  0
    9.6599   -4.1551   16.4796 N   0  0  0  0  0  0  0  0  0  0  0  0
    7.0644   -6.4612   15.7375 N   0  0  0  0  0  0  0  0  0  0  0  0
    5.3549   -9.6322   18.3190 C   0  0  0  0  0  0  0  0  0  0  0  0
   10.3704   -4.9638   18.6510 C   0  0  0  0  0  0  0  0  0  0  0  0
    5.5935   -8.6419   17.4234 C   0  0  0  0  0  0  0  0  0  0  0  0
   13.0726   -4.6648   23.3394 O   0  0  0  0  0  0  0  0  0  0  0  0
    8.5955   -6.0705   17.3996 C   0  0  0  0  0  0  0  0  0  0  0  0
    4.6223   -8.3832   16.5030 C   0  0  0  0  0  0  0  0  0  0  0  0
   12.4690   -5.2624   19.9024 C   0  0  0  0  0  0  0  0  0  0  0  0
    3.2548   -9.9919   17.4189 C   0  0  0  0  0  0  0  0  0  0  0  0
   12.4767   -4.7393   22.1790 C   0  0  0  0  0  0  0  0  0  0  0  0
    7.8593   -5.3772   15.3569 N   0  0  0  0  0  0  0  0  0  0  0  0
    7.4412   -6.9038   16.9283 C   0  0  0  0  0  0  0  0  0  0  0  0
  1 21  4  0
  1 23  4  0
  2  5  1  0
  2 13  4  0
  2 16  4  0
  3  6  4  0
  3  7  4  0
  4 13  4  0
  4 19  4  0
  4 24  4  0
  6 23  4  0
  7 16  1  0
  7 21  4  0
  8 18  1  0
  9 20  4  0
  9 22  4  0
 10 17  1  0
 10 25  1  0
 11 16  4  0
 11 19  4  0
 12 15  4  0
 12 22  4  0
 14 24  4  0
 14 25  4  0
 15 17  4  0
 17 20  4  0
 18 23  1  0
 19 25  4  0
M  END
$$$$

 Created by Python create_sdf_string function

 25 28  0  0  0  0  0  0  0  0999 V2000
   13.1533   -5.2399   21.0682 C   0  0  0  0  0  0  0  0  0  0  0  0
   10.4729   -4.0295   17.6135 C   0  0  0  0  0  0  0  0  0  0  0  0
   10.4789   -4.3641   20.9564 C   0  0  0  0  0  0  0  0  0  0  0  0
    8.7421   -5.1412   16.3650 C   0  0  0  0  0  0  0  0  0  0  0  0
   11.4353   -2.9204   17.8044 C   0  0  0  0  0  0  0  0  0  0  0  0
   11.1529   -4.3028   22.1277 C   0  0  0  0  0  0  0  0  0  0  0  0
   11.1290   -4.8502   19.8052 C   0  0  0  0  0  0  0  0  0  0  0  0
   12.4329   -4.2159   24.4224 C   0  0  0  0  0  0  0  0  0  0  0  0
    3.4740   -9.0387   16.5022 C   0  0  0  0  0  0  0  0  0  0  0  0
    6.8384   -7.9290   17.5282 N   0  0  0  0  0  0  0  0  0  0  0  0
    9.4126   -5.9853   18.4899 C   0  0  0  0  0  0  0  0  0  0  0  0
    4.2064  -10.3242   18.3302 C   0  0  0  0  0  0  0  0  0  0  0  0
    9.6599   -4.1551   16.4796 N   0  0  0  0  0  0  0  0  0  0  0  0
    7.0644   -6.4612   15.7375 N   0  0  0  0  0  0  0  0  0  0  0  0
    5.3549   -9.6322   18.3190 C   0  0  0  0  0  0  0  0  0  0  0  0
   10.3704   -4.9638   18.6510 C   0  0  0  0  0  0  0  0  0  0  0  0
    5.5935   -8.6419   17.4234 C   0  0  0  0  0  0  0  0  0  0  0  0
   13.0726   -4.6648   23.3394 O   0  0  0  0  0  0  0  0  0  0  0  0
    8.5955   -6.0705   17.3996 C   0  0  0  0  0  0  0  0  0  0  0  0
    4.6223   -8.3832   16.5030 C   0  0  0  0  0  0  0  0  0  0  0  0
   12.4690   -5.2624   19.9024 C   0  0  0  0  0  0  0  0  0  0  0  0
    3.2548   -9.9919   17.4189 C   0  0  0  0  0  0  0  0  0  0  0  0
   12.4767   -4.7393   22.1790 C   0  0  0  0  0  0  0  0  0  0  0  0
    7.8593   -5.3772   15.3569 N   0  0  0  0  0  0  0  0  0  0  0  0
    7.4412   -6.9038   16.9283 C   0  0  0  0  0  0  0  0  0  0  0  0
  1 21  4  0
  1 23  4  0
  2  5  1  0
  2 13  4  0
  2 16  4  0
  3  6  4  0
  3  7  4  0
  4 13  4  0
  4 19  4  0
  4 24  4  0
  6 23  4  0
  7 16  1  0
  7 21  4  0
  8 18  1  0
  9 20  4  0
  9 22  4  0
 10 17  1  0
 10 25  1  0
 11 16  4  0
 11 19  4  0
 12 15  4  0
 12 22  4  0
 14 24  4  0
 14 25  4  0
 15 17  4  0
 17 20  4  0
 18 23  1  0
 19 25  4  0
M  END
$$$$

 Created by Python create_sdf_string function

 25 28  0  0  0  0  0  0  0  0999 V2000
   13.1533   -5.2399   21.0682 C   0  0  0  0  0  0  0  0  0  0  0  0
   10.4729   -4.0295   17.6135 C   0  0  0  0  0  0  0  0  0  0  0  0
   10.4789   -4.3641   20.9564 C   0  0  0  0  0  0  0  0  0  0  0  0
    8.7421   -5.1412   16.3650 C   0  0  0  0  0  0  0  0  0  0  0  0
   11.4353   -2.9204   17.8044 C   0  0  0  0  0  0  0  0  0  0  0  0
   11.1529   -4.3028   22.1277 C   0  0  0  0  0  0  0  0  0  0  0  0
   11.1290   -4.8502   19.8052 C   0  0  0  0  0  0  0  0  0  0  0  0
   12.4329   -4.2159   24.4224 C   0  0  0  0  0  0  0  0  0  0  0  0
    3.4740   -9.0387   16.5022 C   0  0  0  0  0  0  0  0  0  0  0  0
    6.8384   -7.9290   17.5282 N   0  0  0  0  0  0  0  0  0  0  0  0
    9.4126   -5.9853   18.4899 C   0  0  0  0  0  0  0  0  0  0  0  0
    4.2064  -10.3242   18.3302 C   0  0  0  0  0  0  0  0  0  0  0  0
    9.6599   -4.1551   16.4796 N   0  0  0  0  0  0  0  0  0  0  0  0
    7.0644   -6.4612   15.7375 N   0  0  0  0  0  0  0  0  0  0  0  0
    5.3549   -9.6322   18.3190 C   0  0  0  0  0  0  0  0  0  0  0  0
   10.3704   -4.9638   18.6510 C   0  0  0  0  0  0  0  0  0  0  0  0
    5.5935   -8.6419   17.4234 C   0  0  0  0  0  0  0  0  0  0  0  0
   13.0726   -4.6648   23.3394 O   0  0  0  0  0  0  0  0  0  0  0  0
    8.5955   -6.0705   17.3996 C   0  0  0  0  0  0  0  0  0  0  0  0
    4.6223   -8.3832   16.5030 C   0  0  0  0  0  0  0  0  0  0  0  0
   12.4690   -5.2624   19.9024 C   0  0  0  0  0  0  0  0  0  0  0  0
    3.2548   -9.9919   17.4189 C   0  0  0  0  0  0  0  0  0  0  0  0
   12.4767   -4.7393   22.1790 C   0  0  0  0  0  0  0  0  0  0  0  0
    7.8593   -5.3772   15.3569 N   0  0  0  0  0  0  0  0  0  0  0  0
    7.4412   -6.9038   16.9283 C   0  0  0  0  0  0  0  0  0  0  0  0
  1 21  4  0
  1 23  4  0
  2  5  1  0
  2 13  4  0
  2 16  4  0
  3  6  4  0
  3  7  4  0
  4 13  4  0
  4 19  4  0
  4 24  4  0
  6 23  4  0
  7 16  1  0
  7 21  4  0
  8 18  1  0
  9 20  4  0
  9 22  4  0
 10 17  1  0
 10 25  1  0
 11 16  4  0
 11 19  4  0
 12 15  4  0
 12 22  4  0
 14 24  4  0
 14 25  4  0
 15 17  4  0
 17 20  4  0
 18 23  1  0
 19 25  4  0
M  END
$$$$

 Created by Python create_sdf_string function

 25 28  0  0  0  0  0  0  0  0999 V2000
   13.1533   -5.2399   21.0682 C   0  0  0  0  0  0  0  0  0  0  0  0
   10.4729   -4.0295   17.6135 C   0  0  0  0  0  0  0  0  0  0  0  0
   10.4789   -4.3641   20.9564 C   0  0  0  0  0  0  0  0  0  0  0  0
    8.7421   -5.1412   16.3650 C   0  0  0  0  0  0  0  0  0  0  0  0
   11.4353   -2.9204   17.8044 C   0  0  0  0  0  0  0  0  0  0  0  0
   11.1529   -4.3028   22.1277 C   0  0  0  0  0  0  0  0  0  0  0  0
   11.1290   -4.8502   19.8052 C   0  0  0  0  0  0  0  0  0  0  0  0
   12.4329   -4.2159   24.4224 C   0  0  0  0  0  0  0  0  0  0  0  0
    3.4740   -9.0387   16.5022 C   0  0  0  0  0  0  0  0  0  0  0  0
    6.8384   -7.9290   17.5282 N   0  0  0  0  0  0  0  0  0  0  0  0
    9.4126   -5.9853   18.4899 C   0  0  0  0  0  0  0  0  0  0  0  0
    4.2064  -10.3242   18.3302 C   0  0  0  0  0  0  0  0  0  0  0  0
    9.6599   -4.1551   16.4796 N   0  0  0  0  0  0  0  0  0  0  0  0
    7.0644   -6.4612   15.7375 N   0  0  0  0  0  0  0  0  0  0  0  0
    5.3549   -9.6322   18.3190 C   0  0  0  0  0  0  0  0  0  0  0  0
   10.3704   -4.9638   18.6510 C   0  0  0  0  0  0  0  0  0  0  0  0
    5.5935   -8.6419   17.4234 C   0  0  0  0  0  0  0  0  0  0  0  0
   13.0726   -4.6648   23.3394 O   0  0  0  0  0  0  0  0  0  0  0  0
    8.5955   -6.0705   17.3996 C   0  0  0  0  0  0  0  0  0  0  0  0
    4.6223   -8.3832   16.5030 C   0  0  0  0  0  0  0  0  0  0  0  0
   12.4690   -5.2624   19.9024 C   0  0  0  0  0  0  0  0  0  0  0  0
    3.2548   -9.9919   17.4189 C   0  0  0  0  0  0  0  0  0  0  0  0
   12.4767   -4.7393   22.1790 C   0  0  0  0  0  0  0  0  0  0  0  0
    7.8593   -5.3772   15.3569 N   0  0  0  0  0  0  0  0  0  0  0  0
    7.4412   -6.9038   16.9283 C   0  0  0  0  0  0  0  0  0  0  0  0
  1 21  4  0
  1 23  4  0
  2  5  1  0
  2 13  4  0
  2 16  4  0
  3  6  4  0
  3  7  4  0
  4 13  4  0
  4 19  4  0
  4 24  4  0
  6 23  4  0
  7 16  1  0
  7 21  4  0
  8 18  1  0
  9 20  4  0
  9 22  4  0
 10 17  1  0
 10 25  1  0
 11 16  4  0
 11 19  4  0
 12 15  4  0
 12 22  4  0
 14 24  4  0
 14 25  4  0
 15 17  4  0
 17 20  4  0
 18 23  1  0
 19 25  4  0
M  END
$$$$

 Created by Python create_sdf_string function

 25 28  0  0  0  0  0  0  0  0999 V2000
   13.1533   -5.2399   21.0682 C   0  0  0  0  0  0  0  0  0  0  0  0
   10.4729   -4.0295   17.6135 C   0  0  0  0  0  0  0  0  0  0  0  0
   10.4789   -4.3641   20.9564 C   0  0  0  0  0  0  0  0  0  0  0  0
    8.7421   -5.1412   16.3650 C   0  0  0  0  0  0  0  0  0  0  0  0
   11.4353   -2.9204   17.8044 C   0  0  0  0  0  0  0  0  0  0  0  0
   11.1529   -4.3028   22.1277 C   0  0  0  0  0  0  0  0  0  0  0  0
   11.1290   -4.8502   19.8052 C   0  0  0  0  0  0  0  0  0  0  0  0
   12.4329   -4.2159   24.4224 C   0  0  0  0  0  0  0  0  0  0  0  0
    3.4740   -9.0387   16.5022 C   0  0  0  0  0  0  0  0  0  0  0  0
    6.8384   -7.9290   17.5282 N   0  0  0  0  0  0  0  0  0  0  0  0
    9.4126   -5.9853   18.4899 C   0  0  0  0  0  0  0  0  0  0  0  0
    4.2064  -10.3242   18.3302 C   0  0  0  0  0  0  0  0  0  0  0  0
    9.6599   -4.1551   16.4796 N   0  0  0  0  0  0  0  0  0  0  0  0
    7.0644   -6.4612   15.7375 N   0  0  0  0  0  0  0  0  0  0  0  0
    5.3549   -9.6322   18.3190 C   0  0  0  0  0  0  0  0  0  0  0  0
   10.3704   -4.9638   18.6510 C   0  0  0  0  0  0  0  0  0  0  0  0
    5.5935   -8.6419   17.4234 C   0  0  0  0  0  0  0  0  0  0  0  0
   13.0726   -4.6648   23.3394 O   0  0  0  0  0  0  0  0  0  0  0  0
    8.5955   -6.0705   17.3996 C   0  0  0  0  0  0  0  0  0  0  0  0
    4.6223   -8.3832   16.5030 C   0  0  0  0  0  0  0  0  0  0  0  0
   12.4690   -5.2624   19.9024 C   0  0  0  0  0  0  0  0  0  0  0  0
    3.2548   -9.9919   17.4189 C   0  0  0  0  0  0  0  0  0  0  0  0
   12.4767   -4.7393   22.1790 C   0  0  0  0  0  0  0  0  0  0  0  0
    7.8593   -5.3772   15.3569 N   0  0  0  0  0  0  0  0  0  0  0  0
    7.4412   -6.9038   16.9283 C   0  0  0  0  0  0  0  0  0  0  0  0
  1 21  4  0
  1 23  4  0
  2  5  1  0
  2 13  4  0
  2 16  4  0
  3  6  4  0
  3  7  4  0
  4 13  4  0
  4 19  4  0
  4 24  4  0
  6 23  4  0
  7 16  1  0
  7 21  4  0
  8 18  1  0
  9 20  4  0
  9 22  4  0
 10 17  1  0
 10 25  1  0
 11 16  4  0
 11 19  4  0
 12 15  4  0
 12 22  4  0
 14 24  4  0
 14 25  4  0
 15 17  4  0
 17 20  4  0
 18 23  1  0
 19 25  4  0
M  END
$$$$

 Created by Python create_sdf_string function

 25 28  0  0  0  0  0  0  0  0999 V2000
   13.1533   -5.2399   21.0682 C   0  0  0  0  0  0  0  0  0  0  0  0
   10.4729   -4.0295   17.6135 C   0  0  0  0  0  0  0  0  0  0  0  0
   10.4789   -4.3641   20.9564 C   0  0  0  0  0  0  0  0  0  0  0  0
    8.7421   -5.1412   16.3650 C   0  0  0  0  0  0  0  0  0  0  0  0
   11.4353   -2.9204   17.8044 C   0  0  0  0  0  0  0  0  0  0  0  0
   11.1529   -4.3028   22.1277 C   0  0  0  0  0  0  0  0  0  0  0  0
   11.1290   -4.8502   19.8052 C   0  0  0  0  0  0  0  0  0  0  0  0
   12.4329   -4.2159   24.4224 C   0  0  0  0  0  0  0  0  0  0  0  0
    3.4740   -9.0387   16.5022 C   0  0  0  0  0  0  0  0  0  0  0  0
    6.8384   -7.9290   17.5282 N   0  0  0  0  0  0  0  0  0  0  0  0
    9.4126   -5.9853   18.4899 C   0  0  0  0  0  0  0  0  0  0  0  0
    4.2064  -10.3242   18.3302 C   0  0  0  0  0  0  0  0  0  0  0  0
    9.6599   -4.1551   16.4796 N   0  0  0  0  0  0  0  0  0  0  0  0
    7.0644   -6.4612   15.7375 N   0  0  0  0  0  0  0  0  0  0  0  0
    5.3549   -9.6322   18.3190 C   0  0  0  0  0  0  0  0  0  0  0  0
   10.3704   -4.9638   18.6510 C   0  0  0  0  0  0  0  0  0  0  0  0
    5.5935   -8.6419   17.4234 C   0  0  0  0  0  0  0  0  0  0  0  0
   13.0726   -4.6648   23.3394 O   0  0  0  0  0  0  0  0  0  0  0  0
    8.5955   -6.0705   17.3996 C   0  0  0  0  0  0  0  0  0  0  0  0
    4.6223   -8.3832   16.5030 C   0  0  0  0  0  0  0  0  0  0  0  0
   12.4690   -5.2624   19.9024 C   0  0  0  0  0  0  0  0  0  0  0  0
    3.2548   -9.9919   17.4189 C   0  0  0  0  0  0  0  0  0  0  0  0
   12.4767   -4.7393   22.1790 C   0  0  0  0  0  0  0  0  0  0  0  0
    7.8593   -5.3772   15.3569 N   0  0  0  0  0  0  0  0  0  0  0  0
    7.4412   -6.9038   16.9283 C   0  0  0  0  0  0  0  0  0  0  0  0
  1 21  4  0
  1 23  4  0
  2  5  1  0
  2 13  4  0
  2 16  4  0
  3  6  4  0
  3  7  4  0
  4 13  4  0
  4 19  4  0
  4 24  4  0
  6 23  4  0
  7 16  1  0
  7 21  4  0
  8 18  1  0
  9 20  4  0
  9 22  4  0
 10 17  1  0
 10 25  1  0
 11 16  4  0
 11 19  4  0
 12 15  4  0
 12 22  4  0
 14 24  4  0
 14 25  4  0
 15 17  4  0
 17 20  4  0
 18 23  1  0
 19 25  4  0
M  END
$$$$

 Created by Python create_sdf_string function

 25 28  0  0  0  0  0  0  0  0999 V2000
   13.1533   -5.2399   21.0682 C   0  0  0  0  0  0  0  0  0  0  0  0
   10.4729   -4.0295   17.6135 C   0  0  0  0  0  0  0  0  0  0  0  0
   10.4789   -4.3641   20.9564 C   0  0  0  0  0  0  0  0  0  0  0  0
    8.7421   -5.1412   16.3650 C   0  0  0  0  0  0  0  0  0  0  0  0
   11.4353   -2.9204   17.8044 C   0  0  0  0  0  0  0  0  0  0  0  0
   11.1529   -4.3028   22.1277 C   0  0  0  0  0  0  0  0  0  0  0  0
   11.1290   -4.8502   19.8052 C   0  0  0  0  0  0  0  0  0  0  0  0
   12.4329   -4.2159   24.4224 C   0  0  0  0  0  0  0  0  0  0  0  0
    3.4740   -9.0387   16.5022 C   0  0  0  0  0  0  0  0  0  0  0  0
    6.8384   -7.9290   17.5282 N   0  0  0  0  0  0  0  0  0  0  0  0
    9.4126   -5.9853   18.4899 C   0  0  0  0  0  0  0  0  0  0  0  0
    4.2064  -10.3242   18.3302 C   0  0  0  0  0  0  0  0  0  0  0  0
    9.6599   -4.1551   16.4796 N   0  0  0  0  0  0  0  0  0  0  0  0
    7.0644   -6.4612   15.7375 N   0  0  0  0  0  0  0  0  0  0  0  0
    5.3549   -9.6322   18.3190 C   0  0  0  0  0  0  0  0  0  0  0  0
   10.3704   -4.9638   18.6510 C   0  0  0  0  0  0  0  0  0  0  0  0
    5.5935   -8.6419   17.4234 C   0  0  0  0  0  0  0  0  0  0  0  0
   13.0726   -4.6648   23.3394 O   0  0  0  0  0  0  0  0  0  0  0  0
    8.5955   -6.0705   17.3996 C   0  0  0  0  0  0  0  0  0  0  0  0
    4.6223   -8.3832   16.5030 C   0  0  0  0  0  0  0  0  0  0  0  0
   12.4690   -5.2624   19.9024 C   0  0  0  0  0  0  0  0  0  0  0  0
    3.2548   -9.9919   17.4189 C   0  0  0  0  0  0  0  0  0  0  0  0
   12.4767   -4.7393   22.1790 C   0  0  0  0  0  0  0  0  0  0  0  0
    7.8593   -5.3772   15.3569 N   0  0  0  0  0  0  0  0  0  0  0  0
    7.4412   -6.9038   16.9283 C   0  0  0  0  0  0  0  0  0  0  0  0
  1 21  4  0
  1 23  4  0
  2  5  1  0
  2 13  4  0
  2 16  4  0
  3  6  4  0
  3  7  4  0
  4 13  4  0
  4 19  4  0
  4 24  4  0
  6 23  4  0
  7 16  1  0
  7 21  4  0
  8 18  1  0
  9 20  4  0
  9 22  4  0
 10 17  1  0
 10 25  1  0
 11 16  4  0
 11 19  4  0
 12 15  4  0
 12 22  4  0
 14 24  4  0
 14 25  4  0
 15 17  4  0
 17 20  4  0
 18 23  1  0
 19 25  4  0
M  END
$$$$

 Created by Python create_sdf_string function

 25 28  0  0  0  0  0  0  0  0999 V2000
   13.1533   -5.2399   21.0682 C   0  0  0  0  0  0  0  0  0  0  0  0
   10.4729   -4.0295   17.6135 C   0  0  0  0  0  0  0  0  0  0  0  0
   10.4789   -4.3641   20.9564 C   0  0  0  0  0  0  0  0  0  0  0  0
    8.7421   -5.1412   16.3650 C   0  0  0  0  0  0  0  0  0  0  0  0
   11.4353   -2.9204   17.8044 C   0  0  0  0  0  0  0  0  0  0  0  0
   11.1529   -4.3028   22.1277 C   0  0  0  0  0  0  0  0  0  0  0  0
   11.1290   -4.8502   19.8052 C   0  0  0  0  0  0  0  0  0  0  0  0
   12.4329   -4.2159   24.4224 C   0  0  0  0  0  0  0  0  0  0  0  0
    3.4740   -9.0387   16.5022 C   0  0  0  0  0  0  0  0  0  0  0  0
    6.8384   -7.9290   17.5282 N   0  0  0  0  0  0  0  0  0  0  0  0
    9.4126   -5.9853   18.4899 C   0  0  0  0  0  0  0  0  0  0  0  0
    4.2064  -10.3242   18.3302 C   0  0  0  0  0  0  0  0  0  0  0  0
    9.6599   -4.1551   16.4796 N   0  0  0  0  0  0  0  0  0  0  0  0
    7.0644   -6.4612   15.7375 N   0  0  0  0  0  0  0  0  0  0  0  0
    5.3549   -9.6322   18.3190 C   0  0  0  0  0  0  0  0  0  0  0  0
   10.3704   -4.9638   18.6510 C   0  0  0  0  0  0  0  0  0  0  0  0
    5.5935   -8.6419   17.4234 C   0  0  0  0  0  0  0  0  0  0  0  0
   13.0726   -4.6648   23.3394 O   0  0  0  0  0  0  0  0  0  0  0  0
    8.5955   -6.0705   17.3996 C   0  0  0  0  0  0  0  0  0  0  0  0
    4.6223   -8.3832   16.5030 C   0  0  0  0  0  0  0  0  0  0  0  0
   12.4690   -5.2624   19.9024 C   0  0  0  0  0  0  0  0  0  0  0  0
    3.2548   -9.9919   17.4189 C   0  0  0  0  0  0  0  0  0  0  0  0
   12.4767   -4.7393   22.1790 C   0  0  0  0  0  0  0  0  0  0  0  0
    7.8593   -5.3772   15.3569 N   0  0  0  0  0  0  0  0  0  0  0  0
    7.4412   -6.9038   16.9283 C   0  0  0  0  0  0  0  0  0  0  0  0
  1 21  4  0
  1 23  4  0
  2  5  1  0
  2 13  4  0
  2 16  4  0
  3  6  4  0
  3  7  4  0
  4 13  4  0
  4 19  4  0
  4 24  4  0
  6 23  4  0
  7 16  1  0
  7 21  4  0
  8 18  1  0
  9 20  4  0
  9 22  4  0
 10 17  1  0
 10 25  1  0
 11 16  4  0
 11 19  4  0
 12 15  4  0
 12 22  4  0
 14 24  4  0
 14 25  4  0
 15 17  4  0
 17 20  4  0
 18 23  1  0
 19 25  4  0
M  END
$$$$

 Created by Python create_sdf_string function

 25 28  0  0  0  0  0  0  0  0999 V2000
   13.1533   -5.2399   21.0682 C   0  0  0  0  0  0  0  0  0  0  0  0
   10.4729   -4.0295   17.6135 C   0  0  0  0  0  0  0  0  0  0  0  0
   10.4789   -4.3641   20.9564 C   0  0  0  0  0  0  0  0  0  0  0  0
    8.7421   -5.1412   16.3650 C   0  0  0  0  0  0  0  0  0  0  0  0
   11.4353   -2.9204   17.8044 C   0  0  0  0  0  0  0  0  0  0  0  0
   11.1529   -4.3028   22.1277 C   0  0  0  0  0  0  0  0  0  0  0  0
   11.1290   -4.8502   19.8052 C   0  0  0  0  0  0  0  0  0  0  0  0
   12.4329   -4.2159   24.4224 C   0  0  0  0  0  0  0  0  0  0  0  0
    3.4740   -9.0387   16.5022 C   0  0  0  0  0  0  0  0  0  0  0  0
    6.8384   -7.9290   17.5282 N   0  0  0  0  0  0  0  0  0  0  0  0
    9.4126   -5.9853   18.4899 C   0  0  0  0  0  0  0  0  0  0  0  0
    4.2064  -10.3242   18.3302 C   0  0  0  0  0  0  0  0  0  0  0  0
    9.6599   -4.1551   16.4796 N   0  0  0  0  0  0  0  0  0  0  0  0
    7.0644   -6.4612   15.7375 N   0  0  0  0  0  0  0  0  0  0  0  0
    5.3549   -9.6322   18.3190 C   0  0  0  0  0  0  0  0  0  0  0  0
   10.3704   -4.9638   18.6510 C   0  0  0  0  0  0  0  0  0  0  0  0
    5.5935   -8.6419   17.4234 C   0  0  0  0  0  0  0  0  0  0  0  0
   13.0726   -4.6648   23.3394 O   0  0  0  0  0  0  0  0  0  0  0  0
    8.5955   -6.0705   17.3996 C   0  0  0  0  0  0  0  0  0  0  0  0
    4.6223   -8.3832   16.5030 C   0  0  0  0  0  0  0  0  0  0  0  0
   12.4690   -5.2624   19.9024 C   0  0  0  0  0  0  0  0  0  0  0  0
    3.2548   -9.9919   17.4189 C   0  0  0  0  0  0  0  0  0  0  0  0
   12.4767   -4.7393   22.1790 C   0  0  0  0  0  0  0  0  0  0  0  0
    7.8593   -5.3772   15.3569 N   0  0  0  0  0  0  0  0  0  0  0  0
    7.4412   -6.9038   16.9283 C   0  0  0  0  0  0  0  0  0  0  0  0
  1 21  4  0
  1 23  4  0
  2  5  1  0
  2 13  4  0
  2 16  4  0
  3  6  4  0
  3  7  4  0
  4 13  4  0
  4 19  4  0
  4 24  4  0
  6 23  4  0
  7 16  1  0
  7 21  4  0
  8 18  1  0
  9 20  4  0
  9 22  4  0
 10 17  1  0
 10 25  1  0
 11 16  4  0
 11 19  4  0
 12 15  4  0
 12 22  4  0
 14 24  4  0
 14 25  4  0
 15 17  4  0
 17 20  4  0
 18 23  1  0
 19 25  4  0
M  END
$$$$

 Created by Python create_sdf_string function

 25 28  0  0  0  0  0  0  0  0999 V2000
   13.1533   -5.2399   21.0682 C   0  0  0  0  0  0  0  0  0  0  0  0
   10.4729   -4.0295   17.6135 C   0  0  0  0  0  0  0  0  0  0  0  0
   10.4789   -4.3641   20.9564 C   0  0  0  0  0  0  0  0  0  0  0  0
    8.7421   -5.1412   16.3650 C   0  0  0  0  0  0  0  0  0  0  0  0
   11.4353   -2.9204   17.8044 C   0  0  0  0  0  0  0  0  0  0  0  0
   11.1529   -4.3028   22.1277 C   0  0  0  0  0  0  0  0  0  0  0  0
   11.1290   -4.8502   19.8052 C   0  0  0  0  0  0  0  0  0  0  0  0
   12.4329   -4.2159   24.4224 C   0  0  0  0  0  0  0  0  0  0  0  0
    3.4740   -9.0387   16.5022 C   0  0  0  0  0  0  0  0  0  0  0  0
    6.8384   -7.9290   17.5282 N   0  0  0  0  0  0  0  0  0  0  0  0
    9.4126   -5.9853   18.4899 C   0  0  0  0  0  0  0  0  0  0  0  0
    4.2064  -10.3242   18.3302 C   0  0  0  0  0  0  0  0  0  0  0  0
    9.6599   -4.1551   16.4796 N   0  0  0  0  0  0  0  0  0  0  0  0
    7.0644   -6.4612   15.7375 N   0  0  0  0  0  0  0  0  0  0  0  0
    5.3549   -9.6322   18.3190 C   0  0  0  0  0  0  0  0  0  0  0  0
   10.3704   -4.9638   18.6510 C   0  0  0  0  0  0  0  0  0  0  0  0
    5.5935   -8.6419   17.4234 C   0  0  0  0  0  0  0  0  0  0  0  0
   13.0726   -4.6648   23.3394 O   0  0  0  0  0  0  0  0  0  0  0  0
    8.5955   -6.0705   17.3996 C   0  0  0  0  0  0  0  0  0  0  0  0
    4.6223   -8.3832   16.5030 C   0  0  0  0  0  0  0  0  0  0  0  0
   12.4690   -5.2624   19.9024 C   0  0  0  0  0  0  0  0  0  0  0  0
    3.2548   -9.9919   17.4189 C   0  0  0  0  0  0  0  0  0  0  0  0
   12.4767   -4.7393   22.1790 C   0  0  0  0  0  0  0  0  0  0  0  0
    7.8593   -5.3772   15.3569 N   0  0  0  0  0  0  0  0  0  0  0  0
    7.4412   -6.9038   16.9283 C   0  0  0  0  0  0  0  0  0  0  0  0
  1 21  4  0
  1 23  4  0
  2  5  1  0
  2 13  4  0
  2 16  4  0
  3  6  4  0
  3  7  4  0
  4 13  4  0
  4 19  4  0
  4 24  4  0
  6 23  4  0
  7 16  1  0
  7 21  4  0
  8 18  1  0
  9 20  4  0
  9 22  4  0
 10 17  1  0
 10 25  1  0
 11 16  4  0
 11 19  4  0
 12 15  4  0
 12 22  4  0
 14 24  4  0
 14 25  4  0
 15 17  4  0
 17 20  4  0
 18 23  1  0
 19 25  4  0
M  END
$$$$

 Created by Python create_sdf_string function

 25 28  0  0  0  0  0  0  0  0999 V2000
   13.1533   -5.2399   21.0682 C   0  0  0  0  0  0  0  0  0  0  0  0
   10.4729   -4.0295   17.6135 C   0  0  0  0  0  0  0  0  0  0  0  0
   10.4789   -4.3641   20.9564 C   0  0  0  0  0  0  0  0  0  0  0  0
    8.7421   -5.1412   16.3650 C   0  0  0  0  0  0  0  0  0  0  0  0
   11.4353   -2.9204   17.8044 C   0  0  0  0  0  0  0  0  0  0  0  0
   11.1529   -4.3028   22.1277 C   0  0  0  0  0  0  0  0  0  0  0  0
   11.1290   -4.8502   19.8052 C   0  0  0  0  0  0  0  0  0  0  0  0
   12.4329   -4.2159   24.4224 C   0  0  0  0  0  0  0  0  0  0  0  0
    3.4740   -9.0387   16.5022 C   0  0  0  0  0  0  0  0  0  0  0  0
    6.8384   -7.9290   17.5282 N   0  0  0  0  0  0  0  0  0  0  0  0
    9.4126   -5.9853   18.4899 C   0  0  0  0  0  0  0  0  0  0  0  0
    4.2064  -10.3242   18.3302 C   0  0  0  0  0  0  0  0  0  0  0  0
    9.6599   -4.1551   16.4796 N   0  0  0  0  0  0  0  0  0  0  0  0
    7.0644   -6.4612   15.7375 N   0  0  0  0  0  0  0  0  0  0  0  0
    5.3549   -9.6322   18.3190 C   0  0  0  0  0  0  0  0  0  0  0  0
   10.3704   -4.9638   18.6510 C   0  0  0  0  0  0  0  0  0  0  0  0
    5.5935   -8.6419   17.4234 C   0  0  0  0  0  0  0  0  0  0  0  0
   13.0726   -4.6648   23.3394 O   0  0  0  0  0  0  0  0  0  0  0  0
    8.5955   -6.0705   17.3996 C   0  0  0  0  0  0  0  0  0  0  0  0
    4.6223   -8.3832   16.5030 C   0  0  0  0  0  0  0  0  0  0  0  0
   12.4690   -5.2624   19.9024 C   0  0  0  0  0  0  0  0  0  0  0  0
    3.2548   -9.9919   17.4189 C   0  0  0  0  0  0  0  0  0  0  0  0
   12.4767   -4.7393   22.1790 C   0  0  0  0  0  0  0  0  0  0  0  0
    7.8593   -5.3772   15.3569 N   0  0  0  0  0  0  0  0  0  0  0  0
    7.4412   -6.9038   16.9283 C   0  0  0  0  0  0  0  0  0  0  0  0
  1 21  4  0
  1 23  4  0
  2  5  1  0
  2 13  4  0
  2 16  4  0
  3  6  4  0
  3  7  4  0
  4 13  4  0
  4 19  4  0
  4 24  4  0
  6 23  4  0
  7 16  1  0
  7 21  4  0
  8 18  1  0
  9 20  4  0
  9 22  4  0
 10 17  1  0
 10 25  1  0
 11 16  4  0
 11 19  4  0
 12 15  4  0
 12 22  4  0
 14 24  4  0
 14 25  4  0
 15 17  4  0
 17 20  4  0
 18 23  1  0
 19 25  4  0
M  END
$$$$

 Created by Python create_sdf_string function

 25 28  0  0  0  0  0  0  0  0999 V2000
   13.1533   -5.2399   21.0682 C   0  0  0  0  0  0  0  0  0  0  0  0
   10.4729   -4.0295   17.6135 C   0  0  0  0  0  0  0  0  0  0  0  0
   10.4789   -4.3641   20.9564 C   0  0  0  0  0  0  0  0  0  0  0  0
    8.7421   -5.1412   16.3650 C   0  0  0  0  0  0  0  0  0  0  0  0
   11.4353   -2.9204   17.8044 C   0  0  0  0  0  0  0  0  0  0  0  0
   11.1529   -4.3028   22.1277 C   0  0  0  0  0  0  0  0  0  0  0  0
   11.1290   -4.8502   19.8052 C   0  0  0  0  0  0  0  0  0  0  0  0
   12.4329   -4.2159   24.4224 C   0  0  0  0  0  0  0  0  0  0  0  0
    3.4740   -9.0387   16.5022 C   0  0  0  0  0  0  0  0  0  0  0  0
    6.8384   -7.9290   17.5282 N   0  0  0  0  0  0  0  0  0  0  0  0
    9.4126   -5.9853   18.4899 C   0  0  0  0  0  0  0  0  0  0  0  0
    4.2064  -10.3242   18.3302 C   0  0  0  0  0  0  0  0  0  0  0  0
    9.6599   -4.1551   16.4796 N   0  0  0  0  0  0  0  0  0  0  0  0
    7.0644   -6.4612   15.7375 N   0  0  0  0  0  0  0  0  0  0  0  0
    5.3549   -9.6322   18.3190 C   0  0  0  0  0  0  0  0  0  0  0  0
   10.3704   -4.9638   18.6510 C   0  0  0  0  0  0  0  0  0  0  0  0
    5.5935   -8.6419   17.4234 C   0  0  0  0  0  0  0  0  0  0  0  0
   13.0726   -4.6648   23.3394 O   0  0  0  0  0  0  0  0  0  0  0  0
    8.5955   -6.0705   17.3996 C   0  0  0  0  0  0  0  0  0  0  0  0
    4.6223   -8.3832   16.5030 C   0  0  0  0  0  0  0  0  0  0  0  0
   12.4690   -5.2624   19.9024 C   0  0  0  0  0  0  0  0  0  0  0  0
    3.2548   -9.9919   17.4189 C   0  0  0  0  0  0  0  0  0  0  0  0
   12.4767   -4.7393   22.1790 C   0  0  0  0  0  0  0  0  0  0  0  0
    7.8593   -5.3772   15.3569 N   0  0  0  0  0  0  0  0  0  0  0  0
    7.4412   -6.9038   16.9283 C   0  0  0  0  0  0  0  0  0  0  0  0
  1 21  4  0
  1 23  4  0
  2  5  1  0
  2 13  4  0
  2 16  4  0
  3  6  4  0
  3  7  4  0
  4 13  4  0
  4 19  4  0
  4 24  4  0
  6 23  4  0
  7 16  1  0
  7 21  4  0
  8 18  1  0
  9 20  4  0
  9 22  4  0
 10 17  1  0
 10 25  1  0
 11 16  4  0
 11 19  4  0
 12 15  4  0
 12 22  4  0
 14 24  4  0
 14 25  4  0
 15 17  4  0
 17 20  4  0
 18 23  1  0
 19 25  4  0
M  END
$$$$

 Created by Python create_sdf_string function

 25 28  0  0  0  0  0  0  0  0999 V2000
   13.1533   -5.2399   21.0682 C   0  0  0  0  0  0  0  0  0  0  0  0
   10.4729   -4.0295   17.6135 C   0  0  0  0  0  0  0  0  0  0  0  0
   10.4789   -4.3641   20.9564 C   0  0  0  0  0  0  0  0  0  0  0  0
    8.7421   -5.1412   16.3650 C   0  0  0  0  0  0  0  0  0  0  0  0
   11.4353   -2.9204   17.8044 C   0  0  0  0  0  0  0  0  0  0  0  0
   11.1529   -4.3028   22.1277 C   0  0  0  0  0  0  0  0  0  0  0  0
   11.1290   -4.8502   19.8052 C   0  0  0  0  0  0  0  0  0  0  0  0
   12.4329   -4.2159   24.4224 C   0  0  0  0  0  0  0  0  0  0  0  0
    3.4740   -9.0387   16.5022 C   0  0  0  0  0  0  0  0  0  0  0  0
    6.8384   -7.9290   17.5282 N   0  0  0  0  0  0  0  0  0  0  0  0
    9.4126   -5.9853   18.4899 C   0  0  0  0  0  0  0  0  0  0  0  0
    4.2064  -10.3242   18.3302 C   0  0  0  0  0  0  0  0  0  0  0  0
    9.6599   -4.1551   16.4796 N   0  0  0  0  0  0  0  0  0  0  0  0
    7.0644   -6.4612   15.7375 N   0  0  0  0  0  0  0  0  0  0  0  0
    5.3549   -9.6322   18.3190 C   0  0  0  0  0  0  0  0  0  0  0  0
   10.3704   -4.9638   18.6510 C   0  0  0  0  0  0  0  0  0  0  0  0
    5.5935   -8.6419   17.4234 C   0  0  0  0  0  0  0  0  0  0  0  0
   13.0726   -4.6648   23.3394 O   0  0  0  0  0  0  0  0  0  0  0  0
    8.5955   -6.0705   17.3996 C   0  0  0  0  0  0  0  0  0  0  0  0
    4.6223   -8.3832   16.5030 C   0  0  0  0  0  0  0  0  0  0  0  0
   12.4690   -5.2624   19.9024 C   0  0  0  0  0  0  0  0  0  0  0  0
    3.2548   -9.9919   17.4189 C   0  0  0  0  0  0  0  0  0  0  0  0
   12.4767   -4.7393   22.1790 C   0  0  0  0  0  0  0  0  0  0  0  0
    7.8593   -5.3772   15.3569 N   0  0  0  0  0  0  0  0  0  0  0  0
    7.4412   -6.9038   16.9283 C   0  0  0  0  0  0  0  0  0  0  0  0
  1 21  4  0
  1 23  4  0
  2  5  1  0
  2 13  4  0
  2 16  4  0
  3  6  4  0
  3  7  4  0
  4 13  4  0
  4 19  4  0
  4 24  4  0
  6 23  4  0
  7 16  1  0
  7 21  4  0
  8 18  1  0
  9 20  4  0
  9 22  4  0
 10 17  1  0
 10 25  1  0
 11 16  4  0
 11 19  4  0
 12 15  4  0
 12 22  4  0
 14 24  4  0
 14 25  4  0
 15 17  4  0
 17 20  4  0
 18 23  1  0
 19 25  4  0
M  END
$$$$

 Created by Python create_sdf_string function

 25 28  0  0  0  0  0  0  0  0999 V2000
   13.1533   -5.2399   21.0682 C   0  0  0  0  0  0  0  0  0  0  0  0
   10.4729   -4.0295   17.6135 C   0  0  0  0  0  0  0  0  0  0  0  0
   10.4789   -4.3641   20.9564 C   0  0  0  0  0  0  0  0  0  0  0  0
    8.7421   -5.1412   16.3650 C   0  0  0  0  0  0  0  0  0  0  0  0
   11.4353   -2.9204   17.8044 C   0  0  0  0  0  0  0  0  0  0  0  0
   11.1529   -4.3028   22.1277 C   0  0  0  0  0  0  0  0  0  0  0  0
   11.1290   -4.8502   19.8052 C   0  0  0  0  0  0  0  0  0  0  0  0
   12.4329   -4.2159   24.4224 C   0  0  0  0  0  0  0  0  0  0  0  0
    3.4740   -9.0387   16.5022 C   0  0  0  0  0  0  0  0  0  0  0  0
    6.8384   -7.9290   17.5282 N   0  0  0  0  0  0  0  0  0  0  0  0
    9.4126   -5.9853   18.4899 C   0  0  0  0  0  0  0  0  0  0  0  0
    4.2064  -10.3242   18.3302 C   0  0  0  0  0  0  0  0  0  0  0  0
    9.6599   -4.1551   16.4796 N   0  0  0  0  0  0  0  0  0  0  0  0
    7.0644   -6.4612   15.7375 N   0  0  0  0  0  0  0  0  0  0  0  0
    5.3549   -9.6322   18.3190 C   0  0  0  0  0  0  0  0  0  0  0  0
   10.3704   -4.9638   18.6510 C   0  0  0  0  0  0  0  0  0  0  0  0
    5.5935   -8.6419   17.4234 C   0  0  0  0  0  0  0  0  0  0  0  0
   13.0726   -4.6648   23.3394 O   0  0  0  0  0  0  0  0  0  0  0  0
    8.5955   -6.0705   17.3996 C   0  0  0  0  0  0  0  0  0  0  0  0
    4.6223   -8.3832   16.5030 C   0  0  0  0  0  0  0  0  0  0  0  0
   12.4690   -5.2624   19.9024 C   0  0  0  0  0  0  0  0  0  0  0  0
    3.2548   -9.9919   17.4189 C   0  0  0  0  0  0  0  0  0  0  0  0
   12.4767   -4.7393   22.1790 C   0  0  0  0  0  0  0  0  0  0  0  0
    7.8593   -5.3772   15.3569 N   0  0  0  0  0  0  0  0  0  0  0  0
    7.4412   -6.9038   16.9283 C   0  0  0  0  0  0  0  0  0  0  0  0
  1 21  4  0
  1 23  4  0
  2  5  1  0
  2 13  4  0
  2 16  4  0
  3  6  4  0
  3  7  4  0
  4 13  4  0
  4 19  4  0
  4 24  4  0
  6 23  4  0
  7 16  1  0
  7 21  4  0
  8 18  1  0
  9 20  4  0
  9 22  4  0
 10 17  1  0
 10 25  1  0
 11 16  4  0
 11 19  4  0
 12 15  4  0
 12 22  4  0
 14 24  4  0
 14 25  4  0
 15 17  4  0
 17 20  4  0
 18 23  1  0
 19 25  4  0
M  END
$$$$

 Created by Python create_sdf_string function

 25 28  0  0  0  0  0  0  0  0999 V2000
   13.1533   -5.2399   21.0682 C   0  0  0  0  0  0  0  0  0  0  0  0
   10.4729   -4.0295   17.6135 C   0  0  0  0  0  0  0  0  0  0  0  0
   10.4789   -4.3641   20.9564 C   0  0  0  0  0  0  0  0  0  0  0  0
    8.7421   -5.1412   16.3650 C   0  0  0  0  0  0  0  0  0  0  0  0
   11.4353   -2.9204   17.8044 C   0  0  0  0  0  0  0  0  0  0  0  0
   11.1529   -4.3028   22.1277 C   0  0  0  0  0  0  0  0  0  0  0  0
   11.1290   -4.8502   19.8052 C   0  0  0  0  0  0  0  0  0  0  0  0
   12.4329   -4.2159   24.4224 C   0  0  0  0  0  0  0  0  0  0  0  0
    3.4740   -9.0387   16.5022 C   0  0  0  0  0  0  0  0  0  0  0  0
    6.8384   -7.9290   17.5282 N   0  0  0  0  0  0  0  0  0  0  0  0
    9.4126   -5.9853   18.4899 C   0  0  0  0  0  0  0  0  0  0  0  0
    4.2064  -10.3242   18.3302 C   0  0  0  0  0  0  0  0  0  0  0  0
    9.6599   -4.1551   16.4796 N   0  0  0  0  0  0  0  0  0  0  0  0
    7.0644   -6.4612   15.7375 N   0  0  0  0  0  0  0  0  0  0  0  0
    5.3549   -9.6322   18.3190 C   0  0  0  0  0  0  0  0  0  0  0  0
   10.3704   -4.9638   18.6510 C   0  0  0  0  0  0  0  0  0  0  0  0
    5.5935   -8.6419   17.4234 C   0  0  0  0  0  0  0  0  0  0  0  0
   13.0726   -4.6648   23.3394 O   0  0  0  0  0  0  0  0  0  0  0  0
    8.5955   -6.0705   17.3996 C   0  0  0  0  0  0  0  0  0  0  0  0
    4.6223   -8.3832   16.5030 C   0  0  0  0  0  0  0  0  0  0  0  0
   12.4690   -5.2624   19.9024 C   0  0  0  0  0  0  0  0  0  0  0  0
    3.2548   -9.9919   17.4189 C   0  0  0  0  0  0  0  0  0  0  0  0
   12.4767   -4.7393   22.1790 C   0  0  0  0  0  0  0  0  0  0  0  0
    7.8593   -5.3772   15.3569 N   0  0  0  0  0  0  0  0  0  0  0  0
    7.4412   -6.9038   16.9283 C   0  0  0  0  0  0  0  0  0  0  0  0
  1 21  4  0
  1 23  4  0
  2  5  1  0
  2 13  4  0
  2 16  4  0
  3  6  4  0
  3  7  4  0
  4 13  4  0
  4 19  4  0
  4 24  4  0
  6 23  4  0
  7 16  1  0
  7 21  4  0
  8 18  1  0
  9 20  4  0
  9 22  4  0
 10 17  1  0
 10 25  1  0
 11 16  4  0
 11 19  4  0
 12 15  4  0
 12 22  4  0
 14 24  4  0
 14 25  4  0
 15 17  4  0
 17 20  4  0
 18 23  1  0
 19 25  4  0
M  END
$$$$

 Created by Python create_sdf_string function

 25 28  0  0  0  0  0  0  0  0999 V2000
   13.1533   -5.2399   21.0682 C   0  0  0  0  0  0  0  0  0  0  0  0
   10.4729   -4.0295   17.6135 C   0  0  0  0  0  0  0  0  0  0  0  0
   10.4789   -4.3641   20.9564 C   0  0  0  0  0  0  0  0  0  0  0  0
    8.7421   -5.1412   16.3650 C   0  0  0  0  0  0  0  0  0  0  0  0
   11.4353   -2.9204   17.8044 C   0  0  0  0  0  0  0  0  0  0  0  0
   11.1529   -4.3028   22.1277 C   0  0  0  0  0  0  0  0  0  0  0  0
   11.1290   -4.8502   19.8052 C   0  0  0  0  0  0  0  0  0  0  0  0
   12.4329   -4.2159   24.4224 C   0  0  0  0  0  0  0  0  0  0  0  0
    3.4740   -9.0387   16.5022 C   0  0  0  0  0  0  0  0  0  0  0  0
    6.8384   -7.9290   17.5282 N   0  0  0  0  0  0  0  0  0  0  0  0
    9.4126   -5.9853   18.4899 C   0  0  0  0  0  0  0  0  0  0  0  0
    4.2064  -10.3242   18.3302 C   0  0  0  0  0  0  0  0  0  0  0  0
    9.6599   -4.1551   16.4796 N   0  0  0  0  0  0  0  0  0  0  0  0
    7.0644   -6.4612   15.7375 N   0  0  0  0  0  0  0  0  0  0  0  0
    5.3549   -9.6322   18.3190 C   0  0  0  0  0  0  0  0  0  0  0  0
   10.3704   -4.9638   18.6510 C   0  0  0  0  0  0  0  0  0  0  0  0
    5.5935   -8.6419   17.4234 C   0  0  0  0  0  0  0  0  0  0  0  0
   13.0726   -4.6648   23.3394 O   0  0  0  0  0  0  0  0  0  0  0  0
    8.5955   -6.0705   17.3996 C   0  0  0  0  0  0  0  0  0  0  0  0
    4.6223   -8.3832   16.5030 C   0  0  0  0  0  0  0  0  0  0  0  0
   12.4690   -5.2624   19.9024 C   0  0  0  0  0  0  0  0  0  0  0  0
    3.2548   -9.9919   17.4189 C   0  0  0  0  0  0  0  0  0  0  0  0
   12.4767   -4.7393   22.1790 C   0  0  0  0  0  0  0  0  0  0  0  0
    7.8593   -5.3772   15.3569 N   0  0  0  0  0  0  0  0  0  0  0  0
    7.4412   -6.9038   16.9283 C   0  0  0  0  0  0  0  0  0  0  0  0
  1 21  4  0
  1 23  4  0
  2  5  1  0
  2 13  4  0
  2 16  4  0
  3  6  4  0
  3  7  4  0
  4 13  4  0
  4 19  4  0
  4 24  4  0
  6 23  4  0
  7 16  1  0
  7 21  4  0
  8 18  1  0
  9 20  4  0
  9 22  4  0
 10 17  1  0
 10 25  1  0
 11 16  4  0
 11 19  4  0
 12 15  4  0
 12 22  4  0
 14 24  4  0
 14 25  4  0
 15 17  4  0
 17 20  4  0
 18 23  1  0
 19 25  4  0
M  END
$$$$

 Created by Python create_sdf_string function

 25 28  0  0  0  0  0  0  0  0999 V2000
   13.1533   -5.2399   21.0682 C   0  0  0  0  0  0  0  0  0  0  0  0
   10.4729   -4.0295   17.6135 C   0  0  0  0  0  0  0  0  0  0  0  0
   10.4789   -4.3641   20.9564 C   0  0  0  0  0  0  0  0  0  0  0  0
    8.7421   -5.1412   16.3650 C   0  0  0  0  0  0  0  0  0  0  0  0
   11.4353   -2.9204   17.8044 C   0  0  0  0  0  0  0  0  0  0  0  0
   11.1529   -4.3028   22.1277 C   0  0  0  0  0  0  0  0  0  0  0  0
   11.1290   -4.8502   19.8052 C   0  0  0  0  0  0  0  0  0  0  0  0
   12.4329   -4.2159   24.4224 C   0  0  0  0  0  0  0  0  0  0  0  0
    3.4740   -9.0387   16.5022 C   0  0  0  0  0  0  0  0  0  0  0  0
    6.8384   -7.9290   17.5282 N   0  0  0  0  0  0  0  0  0  0  0  0
    9.4126   -5.9853   18.4899 C   0  0  0  0  0  0  0  0  0  0  0  0
    4.2064  -10.3242   18.3302 C   0  0  0  0  0  0  0  0  0  0  0  0
    9.6599   -4.1551   16.4796 N   0  0  0  0  0  0  0  0  0  0  0  0
    7.0644   -6.4612   15.7375 N   0  0  0  0  0  0  0  0  0  0  0  0
    5.3549   -9.6322   18.3190 C   0  0  0  0  0  0  0  0  0  0  0  0
   10.3704   -4.9638   18.6510 C   0  0  0  0  0  0  0  0  0  0  0  0
    5.5935   -8.6419   17.4234 C   0  0  0  0  0  0  0  0  0  0  0  0
   13.0726   -4.6648   23.3394 O   0  0  0  0  0  0  0  0  0  0  0  0
    8.5955   -6.0705   17.3996 C   0  0  0  0  0  0  0  0  0  0  0  0
    4.6223   -8.3832   16.5030 C   0  0  0  0  0  0  0  0  0  0  0  0
   12.4690   -5.2624   19.9024 C   0  0  0  0  0  0  0  0  0  0  0  0
    3.2548   -9.9919   17.4189 C   0  0  0  0  0  0  0  0  0  0  0  0
   12.4767   -4.7393   22.1790 C   0  0  0  0  0  0  0  0  0  0  0  0
    7.8593   -5.3772   15.3569 N   0  0  0  0  0  0  0  0  0  0  0  0
    7.4412   -6.9038   16.9283 C   0  0  0  0  0  0  0  0  0  0  0  0
  1 21  4  0
  1 23  4  0
  2  5  1  0
  2 13  4  0
  2 16  4  0
  3  6  4  0
  3  7  4  0
  4 13  4  0
  4 19  4  0
  4 24  4  0
  6 23  4  0
  7 16  1  0
  7 21  4  0
  8 18  1  0
  9 20  4  0
  9 22  4  0
 10 17  1  0
 10 25  1  0
 11 16  4  0
 11 19  4  0
 12 15  4  0
 12 22  4  0
 14 24  4  0
 14 25  4  0
 15 17  4  0
 17 20  4  0
 18 23  1  0
 19 25  4  0
M  END
$$$$

 Created by Python create_sdf_string function

 25 28  0  0  0  0  0  0  0  0999 V2000
   13.1533   -5.2399   21.0682 C   0  0  0  0  0  0  0  0  0  0  0  0
   10.4729   -4.0295   17.6135 C   0  0  0  0  0  0  0  0  0  0  0  0
   10.4789   -4.3641   20.9564 C   0  0  0  0  0  0  0  0  0  0  0  0
    8.7421   -5.1412   16.3650 C   0  0  0  0  0  0  0  0  0  0  0  0
   11.4353   -2.9204   17.8044 C   0  0  0  0  0  0  0  0  0  0  0  0
   11.1529   -4.3028   22.1277 C   0  0  0  0  0  0  0  0  0  0  0  0
   11.1290   -4.8502   19.8052 C   0  0  0  0  0  0  0  0  0  0  0  0
   12.4329   -4.2159   24.4224 C   0  0  0  0  0  0  0  0  0  0  0  0
    3.4740   -9.0387   16.5022 C   0  0  0  0  0  0  0  0  0  0  0  0
    6.8384   -7.9290   17.5282 N   0  0  0  0  0  0  0  0  0  0  0  0
    9.4126   -5.9853   18.4899 C   0  0  0  0  0  0  0  0  0  0  0  0
    4.2064  -10.3242   18.3302 C   0  0  0  0  0  0  0  0  0  0  0  0
    9.6599   -4.1551   16.4796 N   0  0  0  0  0  0  0  0  0  0  0  0
    7.0644   -6.4612   15.7375 N   0  0  0  0  0  0  0  0  0  0  0  0
    5.3549   -9.6322   18.3190 C   0  0  0  0  0  0  0  0  0  0  0  0
   10.3704   -4.9638   18.6510 C   0  0  0  0  0  0  0  0  0  0  0  0
    5.5935   -8.6419   17.4234 C   0  0  0  0  0  0  0  0  0  0  0  0
   13.0726   -4.6648   23.3394 O   0  0  0  0  0  0  0  0  0  0  0  0
    8.5955   -6.0705   17.3996 C   0  0  0  0  0  0  0  0  0  0  0  0
    4.6223   -8.3832   16.5030 C   0  0  0  0  0  0  0  0  0  0  0  0
   12.4690   -5.2624   19.9024 C   0  0  0  0  0  0  0  0  0  0  0  0
    3.2548   -9.9919   17.4189 C   0  0  0  0  0  0  0  0  0  0  0  0
   12.4767   -4.7393   22.1790 C   0  0  0  0  0  0  0  0  0  0  0  0
    7.8593   -5.3772   15.3569 N   0  0  0  0  0  0  0  0  0  0  0  0
    7.4412   -6.9038   16.9283 C   0  0  0  0  0  0  0  0  0  0  0  0
  1 21  4  0
  1 23  4  0
  2  5  1  0
  2 13  4  0
  2 16  4  0
  3  6  4  0
  3  7  4  0
  4 13  4  0
  4 19  4  0
  4 24  4  0
  6 23  4  0
  7 16  1  0
  7 21  4  0
  8 18  1  0
  9 20  4  0
  9 22  4  0
 10 17  1  0
 10 25  1  0
 11 16  4  0
 11 19  4  0
 12 15  4  0
 12 22  4  0
 14 24  4  0
 14 25  4  0
 15 17  4  0
 17 20  4  0
 18 23  1  0
 19 25  4  0
M  END
$$$$

 Created by Python create_sdf_string function

 25 28  0  0  0  0  0  0  0  0999 V2000
   13.1533   -5.2399   21.0682 C   0  0  0  0  0  0  0  0  0  0  0  0
   10.4729   -4.0295   17.6135 C   0  0  0  0  0  0  0  0  0  0  0  0
   10.4789   -4.3641   20.9564 C   0  0  0  0  0  0  0  0  0  0  0  0
    8.7421   -5.1412   16.3650 C   0  0  0  0  0  0  0  0  0  0  0  0
   11.4353   -2.9204   17.8044 C   0  0  0  0  0  0  0  0  0  0  0  0
   11.1529   -4.3028   22.1277 C   0  0  0  0  0  0  0  0  0  0  0  0
   11.1290   -4.8502   19.8052 C   0  0  0  0  0  0  0  0  0  0  0  0
   12.4329   -4.2159   24.4224 C   0  0  0  0  0  0  0  0  0  0  0  0
    3.4740   -9.0387   16.5022 C   0  0  0  0  0  0  0  0  0  0  0  0
    6.8384   -7.9290   17.5282 N   0  0  0  0  0  0  0  0  0  0  0  0
    9.4126   -5.9853   18.4899 C   0  0  0  0  0  0  0  0  0  0  0  0
    4.2064  -10.3242   18.3302 C   0  0  0  0  0  0  0  0  0  0  0  0
    9.6599   -4.1551   16.4796 N   0  0  0  0  0  0  0  0  0  0  0  0
    7.0644   -6.4612   15.7375 N   0  0  0  0  0  0  0  0  0  0  0  0
    5.3549   -9.6322   18.3190 C   0  0  0  0  0  0  0  0  0  0  0  0
   10.3704   -4.9638   18.6510 C   0  0  0  0  0  0  0  0  0  0  0  0
    5.5935   -8.6419   17.4234 C   0  0  0  0  0  0  0  0  0  0  0  0
   13.0726   -4.6648   23.3394 O   0  0  0  0  0  0  0  0  0  0  0  0
    8.5955   -6.0705   17.3996 C   0  0  0  0  0  0  0  0  0  0  0  0
    4.6223   -8.3832   16.5030 C   0  0  0  0  0  0  0  0  0  0  0  0
   12.4690   -5.2624   19.9024 C   0  0  0  0  0  0  0  0  0  0  0  0
    3.2548   -9.9919   17.4189 C   0  0  0  0  0  0  0  0  0  0  0  0
   12.4767   -4.7393   22.1790 C   0  0  0  0  0  0  0  0  0  0  0  0
    7.8593   -5.3772   15.3569 N   0  0  0  0  0  0  0  0  0  0  0  0
    7.4412   -6.9038   16.9283 C   0  0  0  0  0  0  0  0  0  0  0  0
  1 21  4  0
  1 23  4  0
  2  5  1  0
  2 13  4  0
  2 16  4  0
  3  6  4  0
  3  7  4  0
  4 13  4  0
  4 19  4  0
  4 24  4  0
  6 23  4  0
  7 16  1  0
  7 21  4  0
  8 18  1  0
  9 20  4  0
  9 22  4  0
 10 17  1  0
 10 25  1  0
 11 16  4  0
 11 19  4  0
 12 15  4  0
 12 22  4  0
 14 24  4  0
 14 25  4  0
 15 17  4  0
 17 20  4  0
 18 23  1  0
 19 25  4  0
M  END
$$$$

 Created by Python create_sdf_string function

 25 28  0  0  0  0  0  0  0  0999 V2000
   13.1533   -5.2399   21.0682 C   0  0  0  0  0  0  0  0  0  0  0  0
   10.4729   -4.0295   17.6135 C   0  0  0  0  0  0  0  0  0  0  0  0
   10.4789   -4.3641   20.9564 C   0  0  0  0  0  0  0  0  0  0  0  0
    8.7421   -5.1412   16.3650 C   0  0  0  0  0  0  0  0  0  0  0  0
   11.4353   -2.9204   17.8044 C   0  0  0  0  0  0  0  0  0  0  0  0
   11.1529   -4.3028   22.1277 C   0  0  0  0  0  0  0  0  0  0  0  0
   11.1290   -4.8502   19.8052 C   0  0  0  0  0  0  0  0  0  0  0  0
   12.4329   -4.2159   24.4224 C   0  0  0  0  0  0  0  0  0  0  0  0
    3.4740   -9.0387   16.5022 C   0  0  0  0  0  0  0  0  0  0  0  0
    6.8384   -7.9290   17.5282 N   0  0  0  0  0  0  0  0  0  0  0  0
    9.4126   -5.9853   18.4899 C   0  0  0  0  0  0  0  0  0  0  0  0
    4.2064  -10.3242   18.3302 C   0  0  0  0  0  0  0  0  0  0  0  0
    9.6599   -4.1551   16.4796 N   0  0  0  0  0  0  0  0  0  0  0  0
    7.0644   -6.4612   15.7375 N   0  0  0  0  0  0  0  0  0  0  0  0
    5.3549   -9.6322   18.3190 C   0  0  0  0  0  0  0  0  0  0  0  0
   10.3704   -4.9638   18.6510 C   0  0  0  0  0  0  0  0  0  0  0  0
    5.5935   -8.6419   17.4234 C   0  0  0  0  0  0  0  0  0  0  0  0
   13.0726   -4.6648   23.3394 O   0  0  0  0  0  0  0  0  0  0  0  0
    8.5955   -6.0705   17.3996 C   0  0  0  0  0  0  0  0  0  0  0  0
    4.6223   -8.3832   16.5030 C   0  0  0  0  0  0  0  0  0  0  0  0
   12.4690   -5.2624   19.9024 C   0  0  0  0  0  0  0  0  0  0  0  0
    3.2548   -9.9919   17.4189 C   0  0  0  0  0  0  0  0  0  0  0  0
   12.4767   -4.7393   22.1790 C   0  0  0  0  0  0  0  0  0  0  0  0
    7.8593   -5.3772   15.3569 N   0  0  0  0  0  0  0  0  0  0  0  0
    7.4412   -6.9038   16.9283 C   0  0  0  0  0  0  0  0  0  0  0  0
  1 21  4  0
  1 23  4  0
  2  5  1  0
  2 13  4  0
  2 16  4  0
  3  6  4  0
  3  7  4  0
  4 13  4  0
  4 19  4  0
  4 24  4  0
  6 23  4  0
  7 16  1  0
  7 21  4  0
  8 18  1  0
  9 20  4  0
  9 22  4  0
 10 17  1  0
 10 25  1  0
 11 16  4  0
 11 19  4  0
 12 15  4  0
 12 22  4  0
 14 24  4  0
 14 25  4  0
 15 17  4  0
 17 20  4  0
 18 23  1  0
 19 25  4  0
M  END
$$$$

 Created by Python create_sdf_string function

 25 28  0  0  0  0  0  0  0  0999 V2000
   13.1533   -5.2399   21.0682 C   0  0  0  0  0  0  0  0  0  0  0  0
   10.4729   -4.0295   17.6135 C   0  0  0  0  0  0  0  0  0  0  0  0
   10.4789   -4.3641   20.9564 C   0  0  0  0  0  0  0  0  0  0  0  0
    8.7421   -5.1412   16.3650 C   0  0  0  0  0  0  0  0  0  0  0  0
   11.4353   -2.9204   17.8044 C   0  0  0  0  0  0  0  0  0  0  0  0
   11.1529   -4.3028   22.1277 C   0  0  0  0  0  0  0  0  0  0  0  0
   11.1290   -4.8502   19.8052 C   0  0  0  0  0  0  0  0  0  0  0  0
   12.4329   -4.2159   24.4224 C   0  0  0  0  0  0  0  0  0  0  0  0
    3.4740   -9.0387   16.5022 C   0  0  0  0  0  0  0  0  0  0  0  0
    6.8384   -7.9290   17.5282 N   0  0  0  0  0  0  0  0  0  0  0  0
    9.4126   -5.9853   18.4899 C   0  0  0  0  0  0  0  0  0  0  0  0
    4.2064  -10.3242   18.3302 C   0  0  0  0  0  0  0  0  0  0  0  0
    9.6599   -4.1551   16.4796 N   0  0  0  0  0  0  0  0  0  0  0  0
    7.0644   -6.4612   15.7375 N   0  0  0  0  0  0  0  0  0  0  0  0
    5.3549   -9.6322   18.3190 C   0  0  0  0  0  0  0  0  0  0  0  0
   10.3704   -4.9638   18.6510 C   0  0  0  0  0  0  0  0  0  0  0  0
    5.5935   -8.6419   17.4234 C   0  0  0  0  0  0  0  0  0  0  0  0
   13.0726   -4.6648   23.3394 O   0  0  0  0  0  0  0  0  0  0  0  0
    8.5955   -6.0705   17.3996 C   0  0  0  0  0  0  0  0  0  0  0  0
    4.6223   -8.3832   16.5030 C   0  0  0  0  0  0  0  0  0  0  0  0
   12.4690   -5.2624   19.9024 C   0  0  0  0  0  0  0  0  0  0  0  0
    3.2548   -9.9919   17.4189 C   0  0  0  0  0  0  0  0  0  0  0  0
   12.4767   -4.7393   22.1790 C   0  0  0  0  0  0  0  0  0  0  0  0
    7.8593   -5.3772   15.3569 N   0  0  0  0  0  0  0  0  0  0  0  0
    7.4412   -6.9038   16.9283 C   0  0  0  0  0  0  0  0  0  0  0  0
  1 21  4  0
  1 23  4  0
  2  5  1  0
  2 13  4  0
  2 16  4  0
  3  6  4  0
  3  7  4  0
  4 13  4  0
  4 19  4  0
  4 24  4  0
  6 23  4  0
  7 16  1  0
  7 21  4  0
  8 18  1  0
  9 20  4  0
  9 22  4  0
 10 17  1  0
 10 25  1  0
 11 16  4  0
 11 19  4  0
 12 15  4  0
 12 22  4  0
 14 24  4  0
 14 25  4  0
 15 17  4  0
 17 20  4  0
 18 23  1  0
 19 25  4  0
M  END
$$$$

 Created by Python create_sdf_string function

 25 28  0  0  0  0  0  0  0  0999 V2000
   13.1533   -5.2399   21.0682 C   0  0  0  0  0  0  0  0  0  0  0  0
   10.4729   -4.0295   17.6135 C   0  0  0  0  0  0  0  0  0  0  0  0
   10.4789   -4.3641   20.9564 C   0  0  0  0  0  0  0  0  0  0  0  0
    8.7421   -5.1412   16.3650 C   0  0  0  0  0  0  0  0  0  0  0  0
   11.4353   -2.9204   17.8044 C   0  0  0  0  0  0  0  0  0  0  0  0
   11.1529   -4.3028   22.1277 C   0  0  0  0  0  0  0  0  0  0  0  0
   11.1290   -4.8502   19.8052 C   0  0  0  0  0  0  0  0  0  0  0  0
   12.4329   -4.2159   24.4224 C   0  0  0  0  0  0  0  0  0  0  0  0
    3.4740   -9.0387   16.5022 C   0  0  0  0  0  0  0  0  0  0  0  0
    6.8384   -7.9290   17.5282 N   0  0  0  0  0  0  0  0  0  0  0  0
    9.4126   -5.9853   18.4899 C   0  0  0  0  0  0  0  0  0  0  0  0
    4.2064  -10.3242   18.3302 C   0  0  0  0  0  0  0  0  0  0  0  0
    9.6599   -4.1551   16.4796 N   0  0  0  0  0  0  0  0  0  0  0  0
    7.0644   -6.4612   15.7375 N   0  0  0  0  0  0  0  0  0  0  0  0
    5.3549   -9.6322   18.3190 C   0  0  0  0  0  0  0  0  0  0  0  0
   10.3704   -4.9638   18.6510 C   0  0  0  0  0  0  0  0  0  0  0  0
    5.5935   -8.6419   17.4234 C   0  0  0  0  0  0  0  0  0  0  0  0
   13.0726   -4.6648   23.3394 O   0  0  0  0  0  0  0  0  0  0  0  0
    8.5955   -6.0705   17.3996 C   0  0  0  0  0  0  0  0  0  0  0  0
    4.6223   -8.3832   16.5030 C   0  0  0  0  0  0  0  0  0  0  0  0
   12.4690   -5.2624   19.9024 C   0  0  0  0  0  0  0  0  0  0  0  0
    3.2548   -9.9919   17.4189 C   0  0  0  0  0  0  0  0  0  0  0  0
   12.4767   -4.7393   22.1790 C   0  0  0  0  0  0  0  0  0  0  0  0
    7.8593   -5.3772   15.3569 N   0  0  0  0  0  0  0  0  0  0  0  0
    7.4412   -6.9038   16.9283 C   0  0  0  0  0  0  0  0  0  0  0  0
  1 21  4  0
  1 23  4  0
  2  5  1  0
  2 13  4  0
  2 16  4  0
  3  6  4  0
  3  7  4  0
  4 13  4  0
  4 19  4  0
  4 24  4  0
  6 23  4  0
  7 16  1  0
  7 21  4  0
  8 18  1  0
  9 20  4  0
  9 22  4  0
 10 17  1  0
 10 25  1  0
 11 16  4  0
 11 19  4  0
 12 15  4  0
 12 22  4  0
 14 24  4  0
 14 25  4  0
 15 17  4  0
 17 20  4  0
 18 23  1  0
 19 25  4  0
M  END
$$$$

 Created by Python create_sdf_string function

 25 28  0  0  0  0  0  0  0  0999 V2000
   13.1533   -5.2399   21.0682 C   0  0  0  0  0  0  0  0  0  0  0  0
   10.4729   -4.0295   17.6135 C   0  0  0  0  0  0  0  0  0  0  0  0
   10.4789   -4.3641   20.9564 C   0  0  0  0  0  0  0  0  0  0  0  0
    8.7421   -5.1412   16.3650 C   0  0  0  0  0  0  0  0  0  0  0  0
   11.4353   -2.9204   17.8044 C   0  0  0  0  0  0  0  0  0  0  0  0
   11.1529   -4.3028   22.1277 C   0  0  0  0  0  0  0  0  0  0  0  0
   11.1290   -4.8502   19.8052 C   0  0  0  0  0  0  0  0  0  0  0  0
   12.4329   -4.2159   24.4224 C   0  0  0  0  0  0  0  0  0  0  0  0
    3.4740   -9.0387   16.5022 C   0  0  0  0  0  0  0  0  0  0  0  0
    6.8384   -7.9290   17.5282 N   0  0  0  0  0  0  0  0  0  0  0  0
    9.4126   -5.9853   18.4899 C   0  0  0  0  0  0  0  0  0  0  0  0
    4.2064  -10.3242   18.3302 C   0  0  0  0  0  0  0  0  0  0  0  0
    9.6599   -4.1551   16.4796 N   0  0  0  0  0  0  0  0  0  0  0  0
    7.0644   -6.4612   15.7375 N   0  0  0  0  0  0  0  0  0  0  0  0
    5.3549   -9.6322   18.3190 C   0  0  0  0  0  0  0  0  0  0  0  0
   10.3704   -4.9638   18.6510 C   0  0  0  0  0  0  0  0  0  0  0  0
    5.5935   -8.6419   17.4234 C   0  0  0  0  0  0  0  0  0  0  0  0
   13.0726   -4.6648   23.3394 O   0  0  0  0  0  0  0  0  0  0  0  0
    8.5955   -6.0705   17.3996 C   0  0  0  0  0  0  0  0  0  0  0  0
    4.6223   -8.3832   16.5030 C   0  0  0  0  0  0  0  0  0  0  0  0
   12.4690   -5.2624   19.9024 C   0  0  0  0  0  0  0  0  0  0  0  0
    3.2548   -9.9919   17.4189 C   0  0  0  0  0  0  0  0  0  0  0  0
   12.4767   -4.7393   22.1790 C   0  0  0  0  0  0  0  0  0  0  0  0
    7.8593   -5.3772   15.3569 N   0  0  0  0  0  0  0  0  0  0  0  0
    7.4412   -6.9038   16.9283 C   0  0  0  0  0  0  0  0  0  0  0  0
  1 21  4  0
  1 23  4  0
  2  5  1  0
  2 13  4  0
  2 16  4  0
  3  6  4  0
  3  7  4  0
  4 13  4  0
  4 19  4  0
  4 24  4  0
  6 23  4  0
  7 16  1  0
  7 21  4  0
  8 18  1  0
  9 20  4  0
  9 22  4  0
 10 17  1  0
 10 25  1  0
 11 16  4  0
 11 19  4  0
 12 15  4  0
 12 22  4  0
 14 24  4  0
 14 25  4  0
 15 17  4  0
 17 20  4  0
 18 23  1  0
 19 25  4  0
M  END
$$$$

 Created by Python create_sdf_string function

 25 28  0  0  0  0  0  0  0  0999 V2000
   13.1533   -5.2399   21.0682 C   0  0  0  0  0  0  0  0  0  0  0  0
   10.4729   -4.0295   17.6135 C   0  0  0  0  0  0  0  0  0  0  0  0
   10.4789   -4.3641   20.9564 C   0  0  0  0  0  0  0  0  0  0  0  0
    8.7421   -5.1412   16.3650 C   0  0  0  0  0  0  0  0  0  0  0  0
   11.4353   -2.9204   17.8044 C   0  0  0  0  0  0  0  0  0  0  0  0
   11.1529   -4.3028   22.1277 C   0  0  0  0  0  0  0  0  0  0  0  0
   11.1290   -4.8502   19.8052 C   0  0  0  0  0  0  0  0  0  0  0  0
   12.4329   -4.2159   24.4224 C   0  0  0  0  0  0  0  0  0  0  0  0
    3.4740   -9.0387   16.5022 C   0  0  0  0  0  0  0  0  0  0  0  0
    6.8384   -7.9290   17.5282 N   0  0  0  0  0  0  0  0  0  0  0  0
    9.4126   -5.9853   18.4899 C   0  0  0  0  0  0  0  0  0  0  0  0
    4.2064  -10.3242   18.3302 C   0  0  0  0  0  0  0  0  0  0  0  0
    9.6599   -4.1551   16.4796 N   0  0  0  0  0  0  0  0  0  0  0  0
    7.0644   -6.4612   15.7375 N   0  0  0  0  0  0  0  0  0  0  0  0
    5.3549   -9.6322   18.3190 C   0  0  0  0  0  0  0  0  0  0  0  0
   10.3704   -4.9638   18.6510 C   0  0  0  0  0  0  0  0  0  0  0  0
    5.5935   -8.6419   17.4234 C   0  0  0  0  0  0  0  0  0  0  0  0
   13.0726   -4.6648   23.3394 O   0  0  0  0  0  0  0  0  0  0  0  0
    8.5955   -6.0705   17.3996 C   0  0  0  0  0  0  0  0  0  0  0  0
    4.6223   -8.3832   16.5030 C   0  0  0  0  0  0  0  0  0  0  0  0
   12.4690   -5.2624   19.9024 C   0  0  0  0  0  0  0  0  0  0  0  0
    3.2548   -9.9919   17.4189 C   0  0  0  0  0  0  0  0  0  0  0  0
   12.4767   -4.7393   22.1790 C   0  0  0  0  0  0  0  0  0  0  0  0
    7.8593   -5.3772   15.3569 N   0  0  0  0  0  0  0  0  0  0  0  0
    7.4412   -6.9038   16.9283 C   0  0  0  0  0  0  0  0  0  0  0  0
  1 21  4  0
  1 23  4  0
  2  5  1  0
  2 13  4  0
  2 16  4  0
  3  6  4  0
  3  7  4  0
  4 13  4  0
  4 19  4  0
  4 24  4  0
  6 23  4  0
  7 16  1  0
  7 21  4  0
  8 18  1  0
  9 20  4  0
  9 22  4  0
 10 17  1  0
 10 25  1  0
 11 16  4  0
 11 19  4  0
 12 15  4  0
 12 22  4  0
 14 24  4  0
 14 25  4  0
 15 17  4  0
 17 20  4  0
 18 23  1  0
 19 25  4  0
M  END
$$$$

 Created by Python create_sdf_string function

 25 28  0  0  0  0  0  0  0  0999 V2000
   13.1533   -5.2399   21.0682 C   0  0  0  0  0  0  0  0  0  0  0  0
   10.4729   -4.0295   17.6135 C   0  0  0  0  0  0  0  0  0  0  0  0
   10.4789   -4.3641   20.9564 C   0  0  0  0  0  0  0  0  0  0  0  0
    8.7421   -5.1412   16.3650 C   0  0  0  0  0  0  0  0  0  0  0  0
   11.4353   -2.9204   17.8044 C   0  0  0  0  0  0  0  0  0  0  0  0
   11.1529   -4.3028   22.1277 C   0  0  0  0  0  0  0  0  0  0  0  0
   11.1290   -4.8502   19.8052 C   0  0  0  0  0  0  0  0  0  0  0  0
   12.4329   -4.2159   24.4224 C   0  0  0  0  0  0  0  0  0  0  0  0
    3.4740   -9.0387   16.5022 C   0  0  0  0  0  0  0  0  0  0  0  0
    6.8384   -7.9290   17.5282 N   0  0  0  0  0  0  0  0  0  0  0  0
    9.4126   -5.9853   18.4899 C   0  0  0  0  0  0  0  0  0  0  0  0
    4.2064  -10.3242   18.3302 C   0  0  0  0  0  0  0  0  0  0  0  0
    9.6599   -4.1551   16.4796 N   0  0  0  0  0  0  0  0  0  0  0  0
    7.0644   -6.4612   15.7375 N   0  0  0  0  0  0  0  0  0  0  0  0
    5.3549   -9.6322   18.3190 C   0  0  0  0  0  0  0  0  0  0  0  0
   10.3704   -4.9638   18.6510 C   0  0  0  0  0  0  0  0  0  0  0  0
    5.5935   -8.6419   17.4234 C   0  0  0  0  0  0  0  0  0  0  0  0
   13.0726   -4.6648   23.3394 O   0  0  0  0  0  0  0  0  0  0  0  0
    8.5955   -6.0705   17.3996 C   0  0  0  0  0  0  0  0  0  0  0  0
    4.6223   -8.3832   16.5030 C   0  0  0  0  0  0  0  0  0  0  0  0
   12.4690   -5.2624   19.9024 C   0  0  0  0  0  0  0  0  0  0  0  0
    3.2548   -9.9919   17.4189 C   0  0  0  0  0  0  0  0  0  0  0  0
   12.4767   -4.7393   22.1790 C   0  0  0  0  0  0  0  0  0  0  0  0
    7.8593   -5.3772   15.3569 N   0  0  0  0  0  0  0  0  0  0  0  0
    7.4412   -6.9038   16.9283 C   0  0  0  0  0  0  0  0  0  0  0  0
  1 21  4  0
  1 23  4  0
  2  5  1  0
  2 13  4  0
  2 16  4  0
  3  6  4  0
  3  7  4  0
  4 13  4  0
  4 19  4  0
  4 24  4  0
  6 23  4  0
  7 16  1  0
  7 21  4  0
  8 18  1  0
  9 20  4  0
  9 22  4  0
 10 17  1  0
 10 25  1  0
 11 16  4  0
 11 19  4  0
 12 15  4  0
 12 22  4  0
 14 24  4  0
 14 25  4  0
 15 17  4  0
 17 20  4  0
 18 23  1  0
 19 25  4  0
M  END
$$$$

 Created by Python create_sdf_string function

 25 28  0  0  0  0  0  0  0  0999 V2000
   13.1533   -5.2399   21.0682 C   0  0  0  0  0  0  0  0  0  0  0  0
   10.4729   -4.0295   17.6135 C   0  0  0  0  0  0  0  0  0  0  0  0
   10.4789   -4.3641   20.9564 C   0  0  0  0  0  0  0  0  0  0  0  0
    8.7421   -5.1412   16.3650 C   0  0  0  0  0  0  0  0  0  0  0  0
   11.4353   -2.9204   17.8044 C   0  0  0  0  0  0  0  0  0  0  0  0
   11.1529   -4.3028   22.1277 C   0  0  0  0  0  0  0  0  0  0  0  0
   11.1290   -4.8502   19.8052 C   0  0  0  0  0  0  0  0  0  0  0  0
   12.4329   -4.2159   24.4224 C   0  0  0  0  0  0  0  0  0  0  0  0
    3.4740   -9.0387   16.5022 C   0  0  0  0  0  0  0  0  0  0  0  0
    6.8384   -7.9290   17.5282 N   0  0  0  0  0  0  0  0  0  0  0  0
    9.4126   -5.9853   18.4899 C   0  0  0  0  0  0  0  0  0  0  0  0
    4.2064  -10.3242   18.3302 C   0  0  0  0  0  0  0  0  0  0  0  0
    9.6599   -4.1551   16.4796 N   0  0  0  0  0  0  0  0  0  0  0  0
    7.0644   -6.4612   15.7375 N   0  0  0  0  0  0  0  0  0  0  0  0
    5.3549   -9.6322   18.3190 C   0  0  0  0  0  0  0  0  0  0  0  0
   10.3704   -4.9638   18.6510 C   0  0  0  0  0  0  0  0  0  0  0  0
    5.5935   -8.6419   17.4234 C   0  0  0  0  0  0  0  0  0  0  0  0
   13.0726   -4.6648   23.3394 O   0  0  0  0  0  0  0  0  0  0  0  0
    8.5955   -6.0705   17.3996 C   0  0  0  0  0  0  0  0  0  0  0  0
    4.6223   -8.3832   16.5030 C   0  0  0  0  0  0  0  0  0  0  0  0
   12.4690   -5.2624   19.9024 C   0  0  0  0  0  0  0  0  0  0  0  0
    3.2548   -9.9919   17.4189 C   0  0  0  0  0  0  0  0  0  0  0  0
   12.4767   -4.7393   22.1790 C   0  0  0  0  0  0  0  0  0  0  0  0
    7.8593   -5.3772   15.3569 N   0  0  0  0  0  0  0  0  0  0  0  0
    7.4412   -6.9038   16.9283 C   0  0  0  0  0  0  0  0  0  0  0  0
  1 21  4  0
  1 23  4  0
  2  5  1  0
  2 13  4  0
  2 16  4  0
  3  6  4  0
  3  7  4  0
  4 13  4  0
  4 19  4  0
  4 24  4  0
  6 23  4  0
  7 16  1  0
  7 21  4  0
  8 18  1  0
  9 20  4  0
  9 22  4  0
 10 17  1  0
 10 25  1  0
 11 16  4  0
 11 19  4  0
 12 15  4  0
 12 22  4  0
 14 24  4  0
 14 25  4  0
 15 17  4  0
 17 20  4  0
 18 23  1  0
 19 25  4  0
M  END
$$$$

 Created by Python create_sdf_string function

 25 28  0  0  0  0  0  0  0  0999 V2000
   13.1533   -5.2399   21.0682 C   0  0  0  0  0  0  0  0  0  0  0  0
   10.4729   -4.0295   17.6135 C   0  0  0  0  0  0  0  0  0  0  0  0
   10.4789   -4.3641   20.9564 C   0  0  0  0  0  0  0  0  0  0  0  0
    8.7421   -5.1412   16.3650 C   0  0  0  0  0  0  0  0  0  0  0  0
   11.4353   -2.9204   17.8044 C   0  0  0  0  0  0  0  0  0  0  0  0
   11.1529   -4.3028   22.1277 C   0  0  0  0  0  0  0  0  0  0  0  0
   11.1290   -4.8502   19.8052 C   0  0  0  0  0  0  0  0  0  0  0  0
   12.4329   -4.2159   24.4224 C   0  0  0  0  0  0  0  0  0  0  0  0
    3.4740   -9.0387   16.5022 C   0  0  0  0  0  0  0  0  0  0  0  0
    6.8384   -7.9290   17.5282 N   0  0  0  0  0  0  0  0  0  0  0  0
    9.4126   -5.9853   18.4899 C   0  0  0  0  0  0  0  0  0  0  0  0
    4.2064  -10.3242   18.3302 C   0  0  0  0  0  0  0  0  0  0  0  0
    9.6599   -4.1551   16.4796 N   0  0  0  0  0  0  0  0  0  0  0  0
    7.0644   -6.4612   15.7375 N   0  0  0  0  0  0  0  0  0  0  0  0
    5.3549   -9.6322   18.3190 C   0  0  0  0  0  0  0  0  0  0  0  0
   10.3704   -4.9638   18.6510 C   0  0  0  0  0  0  0  0  0  0  0  0
    5.5935   -8.6419   17.4234 C   0  0  0  0  0  0  0  0  0  0  0  0
   13.0726   -4.6648   23.3394 O   0  0  0  0  0  0  0  0  0  0  0  0
    8.5955   -6.0705   17.3996 C   0  0  0  0  0  0  0  0  0  0  0  0
    4.6223   -8.3832   16.5030 C   0  0  0  0  0  0  0  0  0  0  0  0
   12.4690   -5.2624   19.9024 C   0  0  0  0  0  0  0  0  0  0  0  0
    3.2548   -9.9919   17.4189 C   0  0  0  0  0  0  0  0  0  0  0  0
   12.4767   -4.7393   22.1790 C   0  0  0  0  0  0  0  0  0  0  0  0
    7.8593   -5.3772   15.3569 N   0  0  0  0  0  0  0  0  0  0  0  0
    7.4412   -6.9038   16.9283 C   0  0  0  0  0  0  0  0  0  0  0  0
  1 21  4  0
  1 23  4  0
  2  5  1  0
  2 13  4  0
  2 16  4  0
  3  6  4  0
  3  7  4  0
  4 13  4  0
  4 19  4  0
  4 24  4  0
  6 23  4  0
  7 16  1  0
  7 21  4  0
  8 18  1  0
  9 20  4  0
  9 22  4  0
 10 17  1  0
 10 25  1  0
 11 16  4  0
 11 19  4  0
 12 15  4  0
 12 22  4  0
 14 24  4  0
 14 25  4  0
 15 17  4  0
 17 20  4  0
 18 23  1  0
 19 25  4  0
M  END
$$$$

 Created by Python create_sdf_string function

 25 28  0  0  0  0  0  0  0  0999 V2000
   13.1533   -5.2399   21.0682 C   0  0  0  0  0  0  0  0  0  0  0  0
   10.4729   -4.0295   17.6135 C   0  0  0  0  0  0  0  0  0  0  0  0
   10.4789   -4.3641   20.9564 C   0  0  0  0  0  0  0  0  0  0  0  0
    8.7421   -5.1412   16.3650 C   0  0  0  0  0  0  0  0  0  0  0  0
   11.4353   -2.9204   17.8044 C   0  0  0  0  0  0  0  0  0  0  0  0
   11.1529   -4.3028   22.1277 C   0  0  0  0  0  0  0  0  0  0  0  0
   11.1290   -4.8502   19.8052 C   0  0  0  0  0  0  0  0  0  0  0  0
   12.4329   -4.2159   24.4224 C   0  0  0  0  0  0  0  0  0  0  0  0
    3.4740   -9.0387   16.5022 C   0  0  0  0  0  0  0  0  0  0  0  0
    6.8384   -7.9290   17.5282 N   0  0  0  0  0  0  0  0  0  0  0  0
    9.4126   -5.9853   18.4899 C   0  0  0  0  0  0  0  0  0  0  0  0
    4.2064  -10.3242   18.3302 C   0  0  0  0  0  0  0  0  0  0  0  0
    9.6599   -4.1551   16.4796 N   0  0  0  0  0  0  0  0  0  0  0  0
    7.0644   -6.4612   15.7375 N   0  0  0  0  0  0  0  0  0  0  0  0
    5.3549   -9.6322   18.3190 C   0  0  0  0  0  0  0  0  0  0  0  0
   10.3704   -4.9638   18.6510 C   0  0  0  0  0  0  0  0  0  0  0  0
    5.5935   -8.6419   17.4234 C   0  0  0  0  0  0  0  0  0  0  0  0
   13.0726   -4.6648   23.3394 O   0  0  0  0  0  0  0  0  0  0  0  0
    8.5955   -6.0705   17.3996 C   0  0  0  0  0  0  0  0  0  0  0  0
    4.6223   -8.3832   16.5030 C   0  0  0  0  0  0  0  0  0  0  0  0
   12.4690   -5.2624   19.9024 C   0  0  0  0  0  0  0  0  0  0  0  0
    3.2548   -9.9919   17.4189 C   0  0  0  0  0  0  0  0  0  0  0  0
   12.4767   -4.7393   22.1790 C   0  0  0  0  0  0  0  0  0  0  0  0
    7.8593   -5.3772   15.3569 N   0  0  0  0  0  0  0  0  0  0  0  0
    7.4412   -6.9038   16.9283 C   0  0  0  0  0  0  0  0  0  0  0  0
  1 21  4  0
  1 23  4  0
  2  5  1  0
  2 13  4  0
  2 16  4  0
  3  6  4  0
  3  7  4  0
  4 13  4  0
  4 19  4  0
  4 24  4  0
  6 23  4  0
  7 16  1  0
  7 21  4  0
  8 18  1  0
  9 20  4  0
  9 22  4  0
 10 17  1  0
 10 25  1  0
 11 16  4  0
 11 19  4  0
 12 15  4  0
 12 22  4  0
 14 24  4  0
 14 25  4  0
 15 17  4  0
 17 20  4  0
 18 23  1  0
 19 25  4  0
M  END
$$$$

 Created by Python create_sdf_string function

 25 28  0  0  0  0  0  0  0  0999 V2000
   13.1533   -5.2399   21.0682 C   0  0  0  0  0  0  0  0  0  0  0  0
   10.4729   -4.0295   17.6135 C   0  0  0  0  0  0  0  0  0  0  0  0
   10.4789   -4.3641   20.9564 C   0  0  0  0  0  0  0  0  0  0  0  0
    8.7421   -5.1412   16.3650 C   0  0  0  0  0  0  0  0  0  0  0  0
   11.4353   -2.9204   17.8044 C   0  0  0  0  0  0  0  0  0  0  0  0
   11.1529   -4.3028   22.1277 C   0  0  0  0  0  0  0  0  0  0  0  0
   11.1290   -4.8502   19.8052 C   0  0  0  0  0  0  0  0  0  0  0  0
   12.4329   -4.2159   24.4224 C   0  0  0  0  0  0  0  0  0  0  0  0
    3.4740   -9.0387   16.5022 C   0  0  0  0  0  0  0  0  0  0  0  0
    6.8384   -7.9290   17.5282 N   0  0  0  0  0  0  0  0  0  0  0  0
    9.4126   -5.9853   18.4899 C   0  0  0  0  0  0  0  0  0  0  0  0
    4.2064  -10.3242   18.3302 C   0  0  0  0  0  0  0  0  0  0  0  0
    9.6599   -4.1551   16.4796 N   0  0  0  0  0  0  0  0  0  0  0  0
    7.0644   -6.4612   15.7375 N   0  0  0  0  0  0  0  0  0  0  0  0
    5.3549   -9.6322   18.3190 C   0  0  0  0  0  0  0  0  0  0  0  0
   10.3704   -4.9638   18.6510 C   0  0  0  0  0  0  0  0  0  0  0  0
    5.5935   -8.6419   17.4234 C   0  0  0  0  0  0  0  0  0  0  0  0
   13.0726   -4.6648   23.3394 O   0  0  0  0  0  0  0  0  0  0  0  0
    8.5955   -6.0705   17.3996 C   0  0  0  0  0  0  0  0  0  0  0  0
    4.6223   -8.3832   16.5030 C   0  0  0  0  0  0  0  0  0  0  0  0
   12.4690   -5.2624   19.9024 C   0  0  0  0  0  0  0  0  0  0  0  0
    3.2548   -9.9919   17.4189 C   0  0  0  0  0  0  0  0  0  0  0  0
   12.4767   -4.7393   22.1790 C   0  0  0  0  0  0  0  0  0  0  0  0
    7.8593   -5.3772   15.3569 N   0  0  0  0  0  0  0  0  0  0  0  0
    7.4412   -6.9038   16.9283 C   0  0  0  0  0  0  0  0  0  0  0  0
  1 21  4  0
  1 23  4  0
  2  5  1  0
  2 13  4  0
  2 16  4  0
  3  6  4  0
  3  7  4  0
  4 13  4  0
  4 19  4  0
  4 24  4  0
  6 23  4  0
  7 16  1  0
  7 21  4  0
  8 18  1  0
  9 20  4  0
  9 22  4  0
 10 17  1  0
 10 25  1  0
 11 16  4  0
 11 19  4  0
 12 15  4  0
 12 22  4  0
 14 24  4  0
 14 25  4  0
 15 17  4  0
 17 20  4  0
 18 23  1  0
 19 25  4  0
M  END
$$$$

 Created by Python create_sdf_string function

 25 28  0  0  0  0  0  0  0  0999 V2000
   13.1533   -5.2399   21.0682 C   0  0  0  0  0  0  0  0  0  0  0  0
   10.4729   -4.0295   17.6135 C   0  0  0  0  0  0  0  0  0  0  0  0
   10.4789   -4.3641   20.9564 C   0  0  0  0  0  0  0  0  0  0  0  0
    8.7421   -5.1412   16.3650 C   0  0  0  0  0  0  0  0  0  0  0  0
   11.4353   -2.9204   17.8044 C   0  0  0  0  0  0  0  0  0  0  0  0
   11.1529   -4.3028   22.1277 C   0  0  0  0  0  0  0  0  0  0  0  0
   11.1290   -4.8502   19.8052 C   0  0  0  0  0  0  0  0  0  0  0  0
   12.4329   -4.2159   24.4224 C   0  0  0  0  0  0  0  0  0  0  0  0
    3.4740   -9.0387   16.5022 C   0  0  0  0  0  0  0  0  0  0  0  0
    6.8384   -7.9290   17.5282 N   0  0  0  0  0  0  0  0  0  0  0  0
    9.4126   -5.9853   18.4899 C   0  0  0  0  0  0  0  0  0  0  0  0
    4.2064  -10.3242   18.3302 C   0  0  0  0  0  0  0  0  0  0  0  0
    9.6599   -4.1551   16.4796 N   0  0  0  0  0  0  0  0  0  0  0  0
    7.0644   -6.4612   15.7375 N   0  0  0  0  0  0  0  0  0  0  0  0
    5.3549   -9.6322   18.3190 C   0  0  0  0  0  0  0  0  0  0  0  0
   10.3704   -4.9638   18.6510 C   0  0  0  0  0  0  0  0  0  0  0  0
    5.5935   -8.6419   17.4234 C   0  0  0  0  0  0  0  0  0  0  0  0
   13.0726   -4.6648   23.3394 O   0  0  0  0  0  0  0  0  0  0  0  0
    8.5955   -6.0705   17.3996 C   0  0  0  0  0  0  0  0  0  0  0  0
    4.6223   -8.3832   16.5030 C   0  0  0  0  0  0  0  0  0  0  0  0
   12.4690   -5.2624   19.9024 C   0  0  0  0  0  0  0  0  0  0  0  0
    3.2548   -9.9919   17.4189 C   0  0  0  0  0  0  0  0  0  0  0  0
   12.4767   -4.7393   22.1790 C   0  0  0  0  0  0  0  0  0  0  0  0
    7.8593   -5.3772   15.3569 N   0  0  0  0  0  0  0  0  0  0  0  0
    7.4412   -6.9038   16.9283 C   0  0  0  0  0  0  0  0  0  0  0  0
  1 21  4  0
  1 23  4  0
  2  5  1  0
  2 13  4  0
  2 16  4  0
  3  6  4  0
  3  7  4  0
  4 13  4  0
  4 19  4  0
  4 24  4  0
  6 23  4  0
  7 16  1  0
  7 21  4  0
  8 18  1  0
  9 20  4  0
  9 22  4  0
 10 17  1  0
 10 25  1  0
 11 16  4  0
 11 19  4  0
 12 15  4  0
 12 22  4  0
 14 24  4  0
 14 25  4  0
 15 17  4  0
 17 20  4  0
 18 23  1  0
 19 25  4  0
M  END
$$$$

 Created by Python create_sdf_string function

 25 28  0  0  0  0  0  0  0  0999 V2000
   13.1533   -5.2399   21.0682 C   0  0  0  0  0  0  0  0  0  0  0  0
   10.4729   -4.0295   17.6135 C   0  0  0  0  0  0  0  0  0  0  0  0
   10.4789   -4.3641   20.9564 C   0  0  0  0  0  0  0  0  0  0  0  0
    8.7421   -5.1412   16.3650 C   0  0  0  0  0  0  0  0  0  0  0  0
   11.4353   -2.9204   17.8044 C   0  0  0  0  0  0  0  0  0  0  0  0
   11.1529   -4.3028   22.1277 C   0  0  0  0  0  0  0  0  0  0  0  0
   11.1290   -4.8502   19.8052 C   0  0  0  0  0  0  0  0  0  0  0  0
   12.4329   -4.2159   24.4224 C   0  0  0  0  0  0  0  0  0  0  0  0
    3.4740   -9.0387   16.5022 C   0  0  0  0  0  0  0  0  0  0  0  0
    6.8384   -7.9290   17.5282 N   0  0  0  0  0  0  0  0  0  0  0  0
    9.4126   -5.9853   18.4899 C   0  0  0  0  0  0  0  0  0  0  0  0
    4.2064  -10.3242   18.3302 C   0  0  0  0  0  0  0  0  0  0  0  0
    9.6599   -4.1551   16.4796 N   0  0  0  0  0  0  0  0  0  0  0  0
    7.0644   -6.4612   15.7375 N   0  0  0  0  0  0  0  0  0  0  0  0
    5.3549   -9.6322   18.3190 C   0  0  0  0  0  0  0  0  0  0  0  0
   10.3704   -4.9638   18.6510 C   0  0  0  0  0  0  0  0  0  0  0  0
    5.5935   -8.6419   17.4234 C   0  0  0  0  0  0  0  0  0  0  0  0
   13.0726   -4.6648   23.3394 O   0  0  0  0  0  0  0  0  0  0  0  0
    8.5955   -6.0705   17.3996 C   0  0  0  0  0  0  0  0  0  0  0  0
    4.6223   -8.3832   16.5030 C   0  0  0  0  0  0  0  0  0  0  0  0
   12.4690   -5.2624   19.9024 C   0  0  0  0  0  0  0  0  0  0  0  0
    3.2548   -9.9919   17.4189 C   0  0  0  0  0  0  0  0  0  0  0  0
   12.4767   -4.7393   22.1790 C   0  0  0  0  0  0  0  0  0  0  0  0
    7.8593   -5.3772   15.3569 N   0  0  0  0  0  0  0  0  0  0  0  0
    7.4412   -6.9038   16.9283 C   0  0  0  0  0  0  0  0  0  0  0  0
  1 21  4  0
  1 23  4  0
  2  5  1  0
  2 13  4  0
  2 16  4  0
  3  6  4  0
  3  7  4  0
  4 13  4  0
  4 19  4  0
  4 24  4  0
  6 23  4  0
  7 16  1  0
  7 21  4  0
  8 18  1  0
  9 20  4  0
  9 22  4  0
 10 17  1  0
 10 25  1  0
 11 16  4  0
 11 19  4  0
 12 15  4  0
 12 22  4  0
 14 24  4  0
 14 25  4  0
 15 17  4  0
 17 20  4  0
 18 23  1  0
 19 25  4  0
M  END
$$$$

 Created by Python create_sdf_string function

 25 28  0  0  0  0  0  0  0  0999 V2000
   13.1533   -5.2399   21.0682 C   0  0  0  0  0  0  0  0  0  0  0  0
   10.4729   -4.0295   17.6135 C   0  0  0  0  0  0  0  0  0  0  0  0
   10.4789   -4.3641   20.9564 C   0  0  0  0  0  0  0  0  0  0  0  0
    8.7421   -5.1412   16.3650 C   0  0  0  0  0  0  0  0  0  0  0  0
   11.4353   -2.9204   17.8044 C   0  0  0  0  0  0  0  0  0  0  0  0
   11.1529   -4.3028   22.1277 C   0  0  0  0  0  0  0  0  0  0  0  0
   11.1290   -4.8502   19.8052 C   0  0  0  0  0  0  0  0  0  0  0  0
   12.4329   -4.2159   24.4224 C   0  0  0  0  0  0  0  0  0  0  0  0
    3.4740   -9.0387   16.5022 C   0  0  0  0  0  0  0  0  0  0  0  0
    6.8384   -7.9290   17.5282 N   0  0  0  0  0  0  0  0  0  0  0  0
    9.4126   -5.9853   18.4899 C   0  0  0  0  0  0  0  0  0  0  0  0
    4.2064  -10.3242   18.3302 C   0  0  0  0  0  0  0  0  0  0  0  0
    9.6599   -4.1551   16.4796 N   0  0  0  0  0  0  0  0  0  0  0  0
    7.0644   -6.4612   15.7375 N   0  0  0  0  0  0  0  0  0  0  0  0
    5.3549   -9.6322   18.3190 C   0  0  0  0  0  0  0  0  0  0  0  0
   10.3704   -4.9638   18.6510 C   0  0  0  0  0  0  0  0  0  0  0  0
    5.5935   -8.6419   17.4234 C   0  0  0  0  0  0  0  0  0  0  0  0
   13.0726   -4.6648   23.3394 O   0  0  0  0  0  0  0  0  0  0  0  0
    8.5955   -6.0705   17.3996 C   0  0  0  0  0  0  0  0  0  0  0  0
    4.6223   -8.3832   16.5030 C   0  0  0  0  0  0  0  0  0  0  0  0
   12.4690   -5.2624   19.9024 C   0  0  0  0  0  0  0  0  0  0  0  0
    3.2548   -9.9919   17.4189 C   0  0  0  0  0  0  0  0  0  0  0  0
   12.4767   -4.7393   22.1790 C   0  0  0  0  0  0  0  0  0  0  0  0
    7.8593   -5.3772   15.3569 N   0  0  0  0  0  0  0  0  0  0  0  0
    7.4412   -6.9038   16.9283 C   0  0  0  0  0  0  0  0  0  0  0  0
  1 21  4  0
  1 23  4  0
  2  5  1  0
  2 13  4  0
  2 16  4  0
  3  6  4  0
  3  7  4  0
  4 13  4  0
  4 19  4  0
  4 24  4  0
  6 23  4  0
  7 16  1  0
  7 21  4  0
  8 18  1  0
  9 20  4  0
  9 22  4  0
 10 17  1  0
 10 25  1  0
 11 16  4  0
 11 19  4  0
 12 15  4  0
 12 22  4  0
 14 24  4  0
 14 25  4  0
 15 17  4  0
 17 20  4  0
 18 23  1  0
 19 25  4  0
M  END
$$$$

 Created by Python create_sdf_string function

 25 28  0  0  0  0  0  0  0  0999 V2000
   13.1533   -5.2399   21.0682 C   0  0  0  0  0  0  0  0  0  0  0  0
   10.4729   -4.0295   17.6135 C   0  0  0  0  0  0  0  0  0  0  0  0
   10.4789   -4.3641   20.9564 C   0  0  0  0  0  0  0  0  0  0  0  0
    8.7421   -5.1412   16.3650 C   0  0  0  0  0  0  0  0  0  0  0  0
   11.4353   -2.9204   17.8044 C   0  0  0  0  0  0  0  0  0  0  0  0
   11.1529   -4.3028   22.1277 C   0  0  0  0  0  0  0  0  0  0  0  0
   11.1290   -4.8502   19.8052 C   0  0  0  0  0  0  0  0  0  0  0  0
   12.4329   -4.2159   24.4224 C   0  0  0  0  0  0  0  0  0  0  0  0
    3.4740   -9.0387   16.5022 C   0  0  0  0  0  0  0  0  0  0  0  0
    6.8384   -7.9290   17.5282 N   0  0  0  0  0  0  0  0  0  0  0  0
    9.4126   -5.9853   18.4899 C   0  0  0  0  0  0  0  0  0  0  0  0
    4.2064  -10.3242   18.3302 C   0  0  0  0  0  0  0  0  0  0  0  0
    9.6599   -4.1551   16.4796 N   0  0  0  0  0  0  0  0  0  0  0  0
    7.0644   -6.4612   15.7375 N   0  0  0  0  0  0  0  0  0  0  0  0
    5.3549   -9.6322   18.3190 C   0  0  0  0  0  0  0  0  0  0  0  0
   10.3704   -4.9638   18.6510 C   0  0  0  0  0  0  0  0  0  0  0  0
    5.5935   -8.6419   17.4234 C   0  0  0  0  0  0  0  0  0  0  0  0
   13.0726   -4.6648   23.3394 O   0  0  0  0  0  0  0  0  0  0  0  0
    8.5955   -6.0705   17.3996 C   0  0  0  0  0  0  0  0  0  0  0  0
    4.6223   -8.3832   16.5030 C   0  0  0  0  0  0  0  0  0  0  0  0
   12.4690   -5.2624   19.9024 C   0  0  0  0  0  0  0  0  0  0  0  0
    3.2548   -9.9919   17.4189 C   0  0  0  0  0  0  0  0  0  0  0  0
   12.4767   -4.7393   22.1790 C   0  0  0  0  0  0  0  0  0  0  0  0
    7.8593   -5.3772   15.3569 N   0  0  0  0  0  0  0  0  0  0  0  0
    7.4412   -6.9038   16.9283 C   0  0  0  0  0  0  0  0  0  0  0  0
  1 21  4  0
  1 23  4  0
  2  5  1  0
  2 13  4  0
  2 16  4  0
  3  6  4  0
  3  7  4  0
  4 13  4  0
  4 19  4  0
  4 24  4  0
  6 23  4  0
  7 16  1  0
  7 21  4  0
  8 18  1  0
  9 20  4  0
  9 22  4  0
 10 17  1  0
 10 25  1  0
 11 16  4  0
 11 19  4  0
 12 15  4  0
 12 22  4  0
 14 24  4  0
 14 25  4  0
 15 17  4  0
 17 20  4  0
 18 23  1  0
 19 25  4  0
M  END
$$$$

 Created by Python create_sdf_string function

 25 28  0  0  0  0  0  0  0  0999 V2000
   13.1533   -5.2399   21.0682 C   0  0  0  0  0  0  0  0  0  0  0  0
   10.4729   -4.0295   17.6135 C   0  0  0  0  0  0  0  0  0  0  0  0
   10.4789   -4.3641   20.9564 C   0  0  0  0  0  0  0  0  0  0  0  0
    8.7421   -5.1412   16.3650 C   0  0  0  0  0  0  0  0  0  0  0  0
   11.4353   -2.9204   17.8044 C   0  0  0  0  0  0  0  0  0  0  0  0
   11.1529   -4.3028   22.1277 C   0  0  0  0  0  0  0  0  0  0  0  0
   11.1290   -4.8502   19.8052 C   0  0  0  0  0  0  0  0  0  0  0  0
   12.4329   -4.2159   24.4224 C   0  0  0  0  0  0  0  0  0  0  0  0
    3.4740   -9.0387   16.5022 C   0  0  0  0  0  0  0  0  0  0  0  0
    6.8384   -7.9290   17.5282 N   0  0  0  0  0  0  0  0  0  0  0  0
    9.4126   -5.9853   18.4899 C   0  0  0  0  0  0  0  0  0  0  0  0
    4.2064  -10.3242   18.3302 C   0  0  0  0  0  0  0  0  0  0  0  0
    9.6599   -4.1551   16.4796 N   0  0  0  0  0  0  0  0  0  0  0  0
    7.0644   -6.4612   15.7375 N   0  0  0  0  0  0  0  0  0  0  0  0
    5.3549   -9.6322   18.3190 C   0  0  0  0  0  0  0  0  0  0  0  0
   10.3704   -4.9638   18.6510 C   0  0  0  0  0  0  0  0  0  0  0  0
    5.5935   -8.6419   17.4234 C   0  0  0  0  0  0  0  0  0  0  0  0
   13.0726   -4.6648   23.3394 O   0  0  0  0  0  0  0  0  0  0  0  0
    8.5955   -6.0705   17.3996 C   0  0  0  0  0  0  0  0  0  0  0  0
    4.6223   -8.3832   16.5030 C   0  0  0  0  0  0  0  0  0  0  0  0
   12.4690   -5.2624   19.9024 C   0  0  0  0  0  0  0  0  0  0  0  0
    3.2548   -9.9919   17.4189 C   0  0  0  0  0  0  0  0  0  0  0  0
   12.4767   -4.7393   22.1790 C   0  0  0  0  0  0  0  0  0  0  0  0
    7.8593   -5.3772   15.3569 N   0  0  0  0  0  0  0  0  0  0  0  0
    7.4412   -6.9038   16.9283 C   0  0  0  0  0  0  0  0  0  0  0  0
  1 21  4  0
  1 23  4  0
  2  5  1  0
  2 13  4  0
  2 16  4  0
  3  6  4  0
  3  7  4  0
  4 13  4  0
  4 19  4  0
  4 24  4  0
  6 23  4  0
  7 16  1  0
  7 21  4  0
  8 18  1  0
  9 20  4  0
  9 22  4  0
 10 17  1  0
 10 25  1  0
 11 16  4  0
 11 19  4  0
 12 15  4  0
 12 22  4  0
 14 24  4  0
 14 25  4  0
 15 17  4  0
 17 20  4  0
 18 23  1  0
 19 25  4  0
M  END
$$$$

 Created by Python create_sdf_string function

 25 28  0  0  0  0  0  0  0  0999 V2000
   13.1533   -5.2399   21.0682 C   0  0  0  0  0  0  0  0  0  0  0  0
   10.4729   -4.0295   17.6135 C   0  0  0  0  0  0  0  0  0  0  0  0
   10.4789   -4.3641   20.9564 C   0  0  0  0  0  0  0  0  0  0  0  0
    8.7421   -5.1412   16.3650 C   0  0  0  0  0  0  0  0  0  0  0  0
   11.4353   -2.9204   17.8044 C   0  0  0  0  0  0  0  0  0  0  0  0
   11.1529   -4.3028   22.1277 C   0  0  0  0  0  0  0  0  0  0  0  0
   11.1290   -4.8502   19.8052 C   0  0  0  0  0  0  0  0  0  0  0  0
   12.4329   -4.2159   24.4224 C   0  0  0  0  0  0  0  0  0  0  0  0
    3.4740   -9.0387   16.5022 C   0  0  0  0  0  0  0  0  0  0  0  0
    6.8384   -7.9290   17.5282 N   0  0  0  0  0  0  0  0  0  0  0  0
    9.4126   -5.9853   18.4899 C   0  0  0  0  0  0  0  0  0  0  0  0
    4.2064  -10.3242   18.3302 C   0  0  0  0  0  0  0  0  0  0  0  0
    9.6599   -4.1551   16.4796 N   0  0  0  0  0  0  0  0  0  0  0  0
    7.0644   -6.4612   15.7375 N   0  0  0  0  0  0  0  0  0  0  0  0
    5.3549   -9.6322   18.3190 C   0  0  0  0  0  0  0  0  0  0  0  0
   10.3704   -4.9638   18.6510 C   0  0  0  0  0  0  0  0  0  0  0  0
    5.5935   -8.6419   17.4234 C   0  0  0  0  0  0  0  0  0  0  0  0
   13.0726   -4.6648   23.3394 O   0  0  0  0  0  0  0  0  0  0  0  0
    8.5955   -6.0705   17.3996 C   0  0  0  0  0  0  0  0  0  0  0  0
    4.6223   -8.3832   16.5030 C   0  0  0  0  0  0  0  0  0  0  0  0
   12.4690   -5.2624   19.9024 C   0  0  0  0  0  0  0  0  0  0  0  0
    3.2548   -9.9919   17.4189 C   0  0  0  0  0  0  0  0  0  0  0  0
   12.4767   -4.7393   22.1790 C   0  0  0  0  0  0  0  0  0  0  0  0
    7.8593   -5.3772   15.3569 N   0  0  0  0  0  0  0  0  0  0  0  0
    7.4412   -6.9038   16.9283 C   0  0  0  0  0  0  0  0  0  0  0  0
  1 21  4  0
  1 23  4  0
  2  5  1  0
  2 13  4  0
  2 16  4  0
  3  6  4  0
  3  7  4  0
  4 13  4  0
  4 19  4  0
  4 24  4  0
  6 23  4  0
  7 16  1  0
  7 21  4  0
  8 18  1  0
  9 20  4  0
  9 22  4  0
 10 17  1  0
 10 25  1  0
 11 16  4  0
 11 19  4  0
 12 15  4  0
 12 22  4  0
 14 24  4  0
 14 25  4  0
 15 17  4  0
 17 20  4  0
 18 23  1  0
 19 25  4  0
M  END
$$$$

 Created by Python create_sdf_string function

 25 28  0  0  0  0  0  0  0  0999 V2000
   13.1533   -5.2399   21.0682 C   0  0  0  0  0  0  0  0  0  0  0  0
   10.4729   -4.0295   17.6135 C   0  0  0  0  0  0  0  0  0  0  0  0
   10.4789   -4.3641   20.9564 C   0  0  0  0  0  0  0  0  0  0  0  0
    8.7421   -5.1412   16.3650 C   0  0  0  0  0  0  0  0  0  0  0  0
   11.4353   -2.9204   17.8044 C   0  0  0  0  0  0  0  0  0  0  0  0
   11.1529   -4.3028   22.1277 C   0  0  0  0  0  0  0  0  0  0  0  0
   11.1290   -4.8502   19.8052 C   0  0  0  0  0  0  0  0  0  0  0  0
   12.4329   -4.2159   24.4224 C   0  0  0  0  0  0  0  0  0  0  0  0
    3.4740   -9.0387   16.5022 C   0  0  0  0  0  0  0  0  0  0  0  0
    6.8384   -7.9290   17.5282 N   0  0  0  0  0  0  0  0  0  0  0  0
    9.4126   -5.9853   18.4899 C   0  0  0  0  0  0  0  0  0  0  0  0
    4.2064  -10.3242   18.3302 C   0  0  0  0  0  0  0  0  0  0  0  0
    9.6599   -4.1551   16.4796 N   0  0  0  0  0  0  0  0  0  0  0  0
    7.0644   -6.4612   15.7375 N   0  0  0  0  0  0  0  0  0  0  0  0
    5.3549   -9.6322   18.3190 C   0  0  0  0  0  0  0  0  0  0  0  0
   10.3704   -4.9638   18.6510 C   0  0  0  0  0  0  0  0  0  0  0  0
    5.5935   -8.6419   17.4234 C   0  0  0  0  0  0  0  0  0  0  0  0
   13.0726   -4.6648   23.3394 O   0  0  0  0  0  0  0  0  0  0  0  0
    8.5955   -6.0705   17.3996 C   0  0  0  0  0  0  0  0  0  0  0  0
    4.6223   -8.3832   16.5030 C   0  0  0  0  0  0  0  0  0  0  0  0
   12.4690   -5.2624   19.9024 C   0  0  0  0  0  0  0  0  0  0  0  0
    3.2548   -9.9919   17.4189 C   0  0  0  0  0  0  0  0  0  0  0  0
   12.4767   -4.7393   22.1790 C   0  0  0  0  0  0  0  0  0  0  0  0
    7.8593   -5.3772   15.3569 N   0  0  0  0  0  0  0  0  0  0  0  0
    7.4412   -6.9038   16.9283 C   0  0  0  0  0  0  0  0  0  0  0  0
  1 21  4  0
  1 23  4  0
  2  5  1  0
  2 13  4  0
  2 16  4  0
  3  6  4  0
  3  7  4  0
  4 13  4  0
  4 19  4  0
  4 24  4  0
  6 23  4  0
  7 16  1  0
  7 21  4  0
  8 18  1  0
  9 20  4  0
  9 22  4  0
 10 17  1  0
 10 25  1  0
 11 16  4  0
 11 19  4  0
 12 15  4  0
 12 22  4  0
 14 24  4  0
 14 25  4  0
 15 17  4  0
 17 20  4  0
 18 23  1  0
 19 25  4  0
M  END
$$$$

 Created by Python create_sdf_string function

 25 28  0  0  0  0  0  0  0  0999 V2000
   13.1533   -5.2399   21.0682 C   0  0  0  0  0  0  0  0  0  0  0  0
   10.4729   -4.0295   17.6135 C   0  0  0  0  0  0  0  0  0  0  0  0
   10.4789   -4.3641   20.9564 C   0  0  0  0  0  0  0  0  0  0  0  0
    8.7421   -5.1412   16.3650 C   0  0  0  0  0  0  0  0  0  0  0  0
   11.4353   -2.9204   17.8044 C   0  0  0  0  0  0  0  0  0  0  0  0
   11.1529   -4.3028   22.1277 C   0  0  0  0  0  0  0  0  0  0  0  0
   11.1290   -4.8502   19.8052 C   0  0  0  0  0  0  0  0  0  0  0  0
   12.4329   -4.2159   24.4224 C   0  0  0  0  0  0  0  0  0  0  0  0
    3.4740   -9.0387   16.5022 C   0  0  0  0  0  0  0  0  0  0  0  0
    6.8384   -7.9290   17.5282 N   0  0  0  0  0  0  0  0  0  0  0  0
    9.4126   -5.9853   18.4899 C   0  0  0  0  0  0  0  0  0  0  0  0
    4.2064  -10.3242   18.3302 C   0  0  0  0  0  0  0  0  0  0  0  0
    9.6599   -4.1551   16.4796 N   0  0  0  0  0  0  0  0  0  0  0  0
    7.0644   -6.4612   15.7375 N   0  0  0  0  0  0  0  0  0  0  0  0
    5.3549   -9.6322   18.3190 C   0  0  0  0  0  0  0  0  0  0  0  0
   10.3704   -4.9638   18.6510 C   0  0  0  0  0  0  0  0  0  0  0  0
    5.5935   -8.6419   17.4234 C   0  0  0  0  0  0  0  0  0  0  0  0
   13.0726   -4.6648   23.3394 O   0  0  0  0  0  0  0  0  0  0  0  0
    8.5955   -6.0705   17.3996 C   0  0  0  0  0  0  0  0  0  0  0  0
    4.6223   -8.3832   16.5030 C   0  0  0  0  0  0  0  0  0  0  0  0
   12.4690   -5.2624   19.9024 C   0  0  0  0  0  0  0  0  0  0  0  0
    3.2548   -9.9919   17.4189 C   0  0  0  0  0  0  0  0  0  0  0  0
   12.4767   -4.7393   22.1790 C   0  0  0  0  0  0  0  0  0  0  0  0
    7.8593   -5.3772   15.3569 N   0  0  0  0  0  0  0  0  0  0  0  0
    7.4412   -6.9038   16.9283 C   0  0  0  0  0  0  0  0  0  0  0  0
  1 21  4  0
  1 23  4  0
  2  5  1  0
  2 13  4  0
  2 16  4  0
  3  6  4  0
  3  7  4  0
  4 13  4  0
  4 19  4  0
  4 24  4  0
  6 23  4  0
  7 16  1  0
  7 21  4  0
  8 18  1  0
  9 20  4  0
  9 22  4  0
 10 17  1  0
 10 25  1  0
 11 16  4  0
 11 19  4  0
 12 15  4  0
 12 22  4  0
 14 24  4  0
 14 25  4  0
 15 17  4  0
 17 20  4  0
 18 23  1  0
 19 25  4  0
M  END
$$$$

 Created by Python create_sdf_string function

 25 28  0  0  0  0  0  0  0  0999 V2000
   13.1533   -5.2399   21.0682 C   0  0  0  0  0  0  0  0  0  0  0  0
   10.4729   -4.0295   17.6135 C   0  0  0  0  0  0  0  0  0  0  0  0
   10.4789   -4.3641   20.9564 C   0  0  0  0  0  0  0  0  0  0  0  0
    8.7421   -5.1412   16.3650 C   0  0  0  0  0  0  0  0  0  0  0  0
   11.4353   -2.9204   17.8044 C   0  0  0  0  0  0  0  0  0  0  0  0
   11.1529   -4.3028   22.1277 C   0  0  0  0  0  0  0  0  0  0  0  0
   11.1290   -4.8502   19.8052 C   0  0  0  0  0  0  0  0  0  0  0  0
   12.4329   -4.2159   24.4224 C   0  0  0  0  0  0  0  0  0  0  0  0
    3.4740   -9.0387   16.5022 C   0  0  0  0  0  0  0  0  0  0  0  0
    6.8384   -7.9290   17.5282 N   0  0  0  0  0  0  0  0  0  0  0  0
    9.4126   -5.9853   18.4899 C   0  0  0  0  0  0  0  0  0  0  0  0
    4.2064  -10.3242   18.3302 C   0  0  0  0  0  0  0  0  0  0  0  0
    9.6599   -4.1551   16.4796 N   0  0  0  0  0  0  0  0  0  0  0  0
    7.0644   -6.4612   15.7375 N   0  0  0  0  0  0  0  0  0  0  0  0
    5.3549   -9.6322   18.3190 C   0  0  0  0  0  0  0  0  0  0  0  0
   10.3704   -4.9638   18.6510 C   0  0  0  0  0  0  0  0  0  0  0  0
    5.5935   -8.6419   17.4234 C   0  0  0  0  0  0  0  0  0  0  0  0
   13.0726   -4.6648   23.3394 O   0  0  0  0  0  0  0  0  0  0  0  0
    8.5955   -6.0705   17.3996 C   0  0  0  0  0  0  0  0  0  0  0  0
    4.6223   -8.3832   16.5030 C   0  0  0  0  0  0  0  0  0  0  0  0
   12.4690   -5.2624   19.9024 C   0  0  0  0  0  0  0  0  0  0  0  0
    3.2548   -9.9919   17.4189 C   0  0  0  0  0  0  0  0  0  0  0  0
   12.4767   -4.7393   22.1790 C   0  0  0  0  0  0  0  0  0  0  0  0
    7.8593   -5.3772   15.3569 N   0  0  0  0  0  0  0  0  0  0  0  0
    7.4412   -6.9038   16.9283 C   0  0  0  0  0  0  0  0  0  0  0  0
  1 21  4  0
  1 23  4  0
  2  5  1  0
  2 13  4  0
  2 16  4  0
  3  6  4  0
  3  7  4  0
  4 13  4  0
  4 19  4  0
  4 24  4  0
  6 23  4  0
  7 16  1  0
  7 21  4  0
  8 18  1  0
  9 20  4  0
  9 22  4  0
 10 17  1  0
 10 25  1  0
 11 16  4  0
 11 19  4  0
 12 15  4  0
 12 22  4  0
 14 24  4  0
 14 25  4  0
 15 17  4  0
 17 20  4  0
 18 23  1  0
 19 25  4  0
M  END
$$$$

 Created by Python create_sdf_string function

 25 28  0  0  0  0  0  0  0  0999 V2000
   13.1533   -5.2399   21.0682 C   0  0  0  0  0  0  0  0  0  0  0  0
   10.4729   -4.0295   17.6135 C   0  0  0  0  0  0  0  0  0  0  0  0
   10.4789   -4.3641   20.9564 C   0  0  0  0  0  0  0  0  0  0  0  0
    8.7421   -5.1412   16.3650 C   0  0  0  0  0  0  0  0  0  0  0  0
   11.4353   -2.9204   17.8044 C   0  0  0  0  0  0  0  0  0  0  0  0
   11.1529   -4.3028   22.1277 C   0  0  0  0  0  0  0  0  0  0  0  0
   11.1290   -4.8502   19.8052 C   0  0  0  0  0  0  0  0  0  0  0  0
   12.4329   -4.2159   24.4224 C   0  0  0  0  0  0  0  0  0  0  0  0
    3.4740   -9.0387   16.5022 C   0  0  0  0  0  0  0  0  0  0  0  0
    6.8384   -7.9290   17.5282 N   0  0  0  0  0  0  0  0  0  0  0  0
    9.4126   -5.9853   18.4899 C   0  0  0  0  0  0  0  0  0  0  0  0
    4.2064  -10.3242   18.3302 C   0  0  0  0  0  0  0  0  0  0  0  0
    9.6599   -4.1551   16.4796 N   0  0  0  0  0  0  0  0  0  0  0  0
    7.0644   -6.4612   15.7375 N   0  0  0  0  0  0  0  0  0  0  0  0
    5.3549   -9.6322   18.3190 C   0  0  0  0  0  0  0  0  0  0  0  0
   10.3704   -4.9638   18.6510 C   0  0  0  0  0  0  0  0  0  0  0  0
    5.5935   -8.6419   17.4234 C   0  0  0  0  0  0  0  0  0  0  0  0
   13.0726   -4.6648   23.3394 O   0  0  0  0  0  0  0  0  0  0  0  0
    8.5955   -6.0705   17.3996 C   0  0  0  0  0  0  0  0  0  0  0  0
    4.6223   -8.3832   16.5030 C   0  0  0  0  0  0  0  0  0  0  0  0
   12.4690   -5.2624   19.9024 C   0  0  0  0  0  0  0  0  0  0  0  0
    3.2548   -9.9919   17.4189 C   0  0  0  0  0  0  0  0  0  0  0  0
   12.4767   -4.7393   22.1790 C   0  0  0  0  0  0  0  0  0  0  0  0
    7.8593   -5.3772   15.3569 N   0  0  0  0  0  0  0  0  0  0  0  0
    7.4412   -6.9038   16.9283 C   0  0  0  0  0  0  0  0  0  0  0  0
  1 21  4  0
  1 23  4  0
  2  5  1  0
  2 13  4  0
  2 16  4  0
  3  6  4  0
  3  7  4  0
  4 13  4  0
  4 19  4  0
  4 24  4  0
  6 23  4  0
  7 16  1  0
  7 21  4  0
  8 18  1  0
  9 20  4  0
  9 22  4  0
 10 17  1  0
 10 25  1  0
 11 16  4  0
 11 19  4  0
 12 15  4  0
 12 22  4  0
 14 24  4  0
 14 25  4  0
 15 17  4  0
 17 20  4  0
 18 23  1  0
 19 25  4  0
M  END
$$$$

 Created by Python create_sdf_string function

 25 28  0  0  0  0  0  0  0  0999 V2000
   13.1533   -5.2399   21.0682 C   0  0  0  0  0  0  0  0  0  0  0  0
   10.4729   -4.0295   17.6135 C   0  0  0  0  0  0  0  0  0  0  0  0
   10.4789   -4.3641   20.9564 C   0  0  0  0  0  0  0  0  0  0  0  0
    8.7421   -5.1412   16.3650 C   0  0  0  0  0  0  0  0  0  0  0  0
   11.4353   -2.9204   17.8044 C   0  0  0  0  0  0  0  0  0  0  0  0
   11.1529   -4.3028   22.1277 C   0  0  0  0  0  0  0  0  0  0  0  0
   11.1290   -4.8502   19.8052 C   0  0  0  0  0  0  0  0  0  0  0  0
   12.4329   -4.2159   24.4224 C   0  0  0  0  0  0  0  0  0  0  0  0
    3.4740   -9.0387   16.5022 C   0  0  0  0  0  0  0  0  0  0  0  0
    6.8384   -7.9290   17.5282 N   0  0  0  0  0  0  0  0  0  0  0  0
    9.4126   -5.9853   18.4899 C   0  0  0  0  0  0  0  0  0  0  0  0
    4.2064  -10.3242   18.3302 C   0  0  0  0  0  0  0  0  0  0  0  0
    9.6599   -4.1551   16.4796 N   0  0  0  0  0  0  0  0  0  0  0  0
    7.0644   -6.4612   15.7375 N   0  0  0  0  0  0  0  0  0  0  0  0
    5.3549   -9.6322   18.3190 C   0  0  0  0  0  0  0  0  0  0  0  0
   10.3704   -4.9638   18.6510 C   0  0  0  0  0  0  0  0  0  0  0  0
    5.5935   -8.6419   17.4234 C   0  0  0  0  0  0  0  0  0  0  0  0
   13.0726   -4.6648   23.3394 O   0  0  0  0  0  0  0  0  0  0  0  0
    8.5955   -6.0705   17.3996 C   0  0  0  0  0  0  0  0  0  0  0  0
    4.6223   -8.3832   16.5030 C   0  0  0  0  0  0  0  0  0  0  0  0
   12.4690   -5.2624   19.9024 C   0  0  0  0  0  0  0  0  0  0  0  0
    3.2548   -9.9919   17.4189 C   0  0  0  0  0  0  0  0  0  0  0  0
   12.4767   -4.7393   22.1790 C   0  0  0  0  0  0  0  0  0  0  0  0
    7.8593   -5.3772   15.3569 N   0  0  0  0  0  0  0  0  0  0  0  0
    7.4412   -6.9038   16.9283 C   0  0  0  0  0  0  0  0  0  0  0  0
  1 21  4  0
  1 23  4  0
  2  5  1  0
  2 13  4  0
  2 16  4  0
  3  6  4  0
  3  7  4  0
  4 13  4  0
  4 19  4  0
  4 24  4  0
  6 23  4  0
  7 16  1  0
  7 21  4  0
  8 18  1  0
  9 20  4  0
  9 22  4  0
 10 17  1  0
 10 25  1  0
 11 16  4  0
 11 19  4  0
 12 15  4  0
 12 22  4  0
 14 24  4  0
 14 25  4  0
 15 17  4  0
 17 20  4  0
 18 23  1  0
 19 25  4  0
M  END
$$$$

 Created by Python create_sdf_string function

 25 28  0  0  0  0  0  0  0  0999 V2000
   13.1533   -5.2399   21.0682 C   0  0  0  0  0  0  0  0  0  0  0  0
   10.4729   -4.0295   17.6135 C   0  0  0  0  0  0  0  0  0  0  0  0
   10.4789   -4.3641   20.9564 C   0  0  0  0  0  0  0  0  0  0  0  0
    8.7421   -5.1412   16.3650 C   0  0  0  0  0  0  0  0  0  0  0  0
   11.4353   -2.9204   17.8044 C   0  0  0  0  0  0  0  0  0  0  0  0
   11.1529   -4.3028   22.1277 C   0  0  0  0  0  0  0  0  0  0  0  0
   11.1290   -4.8502   19.8052 C   0  0  0  0  0  0  0  0  0  0  0  0
   12.4329   -4.2159   24.4224 C   0  0  0  0  0  0  0  0  0  0  0  0
    3.4740   -9.0387   16.5022 C   0  0  0  0  0  0  0  0  0  0  0  0
    6.8384   -7.9290   17.5282 N   0  0  0  0  0  0  0  0  0  0  0  0
    9.4126   -5.9853   18.4899 C   0  0  0  0  0  0  0  0  0  0  0  0
    4.2064  -10.3242   18.3302 C   0  0  0  0  0  0  0  0  0  0  0  0
    9.6599   -4.1551   16.4796 N   0  0  0  0  0  0  0  0  0  0  0  0
    7.0644   -6.4612   15.7375 N   0  0  0  0  0  0  0  0  0  0  0  0
    5.3549   -9.6322   18.3190 C   0  0  0  0  0  0  0  0  0  0  0  0
   10.3704   -4.9638   18.6510 C   0  0  0  0  0  0  0  0  0  0  0  0
    5.5935   -8.6419   17.4234 C   0  0  0  0  0  0  0  0  0  0  0  0
   13.0726   -4.6648   23.3394 O   0  0  0  0  0  0  0  0  0  0  0  0
    8.5955   -6.0705   17.3996 C   0  0  0  0  0  0  0  0  0  0  0  0
    4.6223   -8.3832   16.5030 C   0  0  0  0  0  0  0  0  0  0  0  0
   12.4690   -5.2624   19.9024 C   0  0  0  0  0  0  0  0  0  0  0  0
    3.2548   -9.9919   17.4189 C   0  0  0  0  0  0  0  0  0  0  0  0
   12.4767   -4.7393   22.1790 C   0  0  0  0  0  0  0  0  0  0  0  0
    7.8593   -5.3772   15.3569 N   0  0  0  0  0  0  0  0  0  0  0  0
    7.4412   -6.9038   16.9283 C   0  0  0  0  0  0  0  0  0  0  0  0
  1 21  4  0
  1 23  4  0
  2  5  1  0
  2 13  4  0
  2 16  4  0
  3  6  4  0
  3  7  4  0
  4 13  4  0
  4 19  4  0
  4 24  4  0
  6 23  4  0
  7 16  1  0
  7 21  4  0
  8 18  1  0
  9 20  4  0
  9 22  4  0
 10 17  1  0
 10 25  1  0
 11 16  4  0
 11 19  4  0
 12 15  4  0
 12 22  4  0
 14 24  4  0
 14 25  4  0
 15 17  4  0
 17 20  4  0
 18 23  1  0
 19 25  4  0
M  END
$$$$

 Created by Python create_sdf_string function

 25 28  0  0  0  0  0  0  0  0999 V2000
   13.1533   -5.2399   21.0682 C   0  0  0  0  0  0  0  0  0  0  0  0
   10.4729   -4.0295   17.6135 C   0  0  0  0  0  0  0  0  0  0  0  0
   10.4789   -4.3641   20.9564 C   0  0  0  0  0  0  0  0  0  0  0  0
    8.7421   -5.1412   16.3650 C   0  0  0  0  0  0  0  0  0  0  0  0
   11.4353   -2.9204   17.8044 C   0  0  0  0  0  0  0  0  0  0  0  0
   11.1529   -4.3028   22.1277 C   0  0  0  0  0  0  0  0  0  0  0  0
   11.1290   -4.8502   19.8052 C   0  0  0  0  0  0  0  0  0  0  0  0
   12.4329   -4.2159   24.4224 C   0  0  0  0  0  0  0  0  0  0  0  0
    3.4740   -9.0387   16.5022 C   0  0  0  0  0  0  0  0  0  0  0  0
    6.8384   -7.9290   17.5282 N   0  0  0  0  0  0  0  0  0  0  0  0
    9.4126   -5.9853   18.4899 C   0  0  0  0  0  0  0  0  0  0  0  0
    4.2064  -10.3242   18.3302 C   0  0  0  0  0  0  0  0  0  0  0  0
    9.6599   -4.1551   16.4796 N   0  0  0  0  0  0  0  0  0  0  0  0
    7.0644   -6.4612   15.7375 N   0  0  0  0  0  0  0  0  0  0  0  0
    5.3549   -9.6322   18.3190 C   0  0  0  0  0  0  0  0  0  0  0  0
   10.3704   -4.9638   18.6510 C   0  0  0  0  0  0  0  0  0  0  0  0
    5.5935   -8.6419   17.4234 C   0  0  0  0  0  0  0  0  0  0  0  0
   13.0726   -4.6648   23.3394 O   0  0  0  0  0  0  0  0  0  0  0  0
    8.5955   -6.0705   17.3996 C   0  0  0  0  0  0  0  0  0  0  0  0
    4.6223   -8.3832   16.5030 C   0  0  0  0  0  0  0  0  0  0  0  0
   12.4690   -5.2624   19.9024 C   0  0  0  0  0  0  0  0  0  0  0  0
    3.2548   -9.9919   17.4189 C   0  0  0  0  0  0  0  0  0  0  0  0
   12.4767   -4.7393   22.1790 C   0  0  0  0  0  0  0  0  0  0  0  0
    7.8593   -5.3772   15.3569 N   0  0  0  0  0  0  0  0  0  0  0  0
    7.4412   -6.9038   16.9283 C   0  0  0  0  0  0  0  0  0  0  0  0
  1 21  4  0
  1 23  4  0
  2  5  1  0
  2 13  4  0
  2 16  4  0
  3  6  4  0
  3  7  4  0
  4 13  4  0
  4 19  4  0
  4 24  4  0
  6 23  4  0
  7 16  1  0
  7 21  4  0
  8 18  1  0
  9 20  4  0
  9 22  4  0
 10 17  1  0
 10 25  1  0
 11 16  4  0
 11 19  4  0
 12 15  4  0
 12 22  4  0
 14 24  4  0
 14 25  4  0
 15 17  4  0
 17 20  4  0
 18 23  1  0
 19 25  4  0
M  END
$$$$

 Created by Python create_sdf_string function

 25 28  0  0  0  0  0  0  0  0999 V2000
   13.1533   -5.2399   21.0682 C   0  0  0  0  0  0  0  0  0  0  0  0
   10.4729   -4.0295   17.6135 C   0  0  0  0  0  0  0  0  0  0  0  0
   10.4789   -4.3641   20.9564 C   0  0  0  0  0  0  0  0  0  0  0  0
    8.7421   -5.1412   16.3650 C   0  0  0  0  0  0  0  0  0  0  0  0
   11.4353   -2.9204   17.8044 C   0  0  0  0  0  0  0  0  0  0  0  0
   11.1529   -4.3028   22.1277 C   0  0  0  0  0  0  0  0  0  0  0  0
   11.1290   -4.8502   19.8052 C   0  0  0  0  0  0  0  0  0  0  0  0
   12.4329   -4.2159   24.4224 C   0  0  0  0  0  0  0  0  0  0  0  0
    3.4740   -9.0387   16.5022 C   0  0  0  0  0  0  0  0  0  0  0  0
    6.8384   -7.9290   17.5282 N   0  0  0  0  0  0  0  0  0  0  0  0
    9.4126   -5.9853   18.4899 C   0  0  0  0  0  0  0  0  0  0  0  0
    4.2064  -10.3242   18.3302 C   0  0  0  0  0  0  0  0  0  0  0  0
    9.6599   -4.1551   16.4796 N   0  0  0  0  0  0  0  0  0  0  0  0
    7.0644   -6.4612   15.7375 N   0  0  0  0  0  0  0  0  0  0  0  0
    5.3549   -9.6322   18.3190 C   0  0  0  0  0  0  0  0  0  0  0  0
   10.3704   -4.9638   18.6510 C   0  0  0  0  0  0  0  0  0  0  0  0
    5.5935   -8.6419   17.4234 C   0  0  0  0  0  0  0  0  0  0  0  0
   13.0726   -4.6648   23.3394 O   0  0  0  0  0  0  0  0  0  0  0  0
    8.5955   -6.0705   17.3996 C   0  0  0  0  0  0  0  0  0  0  0  0
    4.6223   -8.3832   16.5030 C   0  0  0  0  0  0  0  0  0  0  0  0
   12.4690   -5.2624   19.9024 C   0  0  0  0  0  0  0  0  0  0  0  0
    3.2548   -9.9919   17.4189 C   0  0  0  0  0  0  0  0  0  0  0  0
   12.4767   -4.7393   22.1790 C   0  0  0  0  0  0  0  0  0  0  0  0
    7.8593   -5.3772   15.3569 N   0  0  0  0  0  0  0  0  0  0  0  0
    7.4412   -6.9038   16.9283 C   0  0  0  0  0  0  0  0  0  0  0  0
  1 21  4  0
  1 23  4  0
  2  5  1  0
  2 13  4  0
  2 16  4  0
  3  6  4  0
  3  7  4  0
  4 13  4  0
  4 19  4  0
  4 24  4  0
  6 23  4  0
  7 16  1  0
  7 21  4  0
  8 18  1  0
  9 20  4  0
  9 22  4  0
 10 17  1  0
 10 25  1  0
 11 16  4  0
 11 19  4  0
 12 15  4  0
 12 22  4  0
 14 24  4  0
 14 25  4  0
 15 17  4  0
 17 20  4  0
 18 23  1  0
 19 25  4  0
M  END
$$$$

 Created by Python create_sdf_string function

 25 28  0  0  0  0  0  0  0  0999 V2000
   13.1533   -5.2399   21.0682 C   0  0  0  0  0  0  0  0  0  0  0  0
   10.4729   -4.0295   17.6135 C   0  0  0  0  0  0  0  0  0  0  0  0
   10.4789   -4.3641   20.9564 C   0  0  0  0  0  0  0  0  0  0  0  0
    8.7421   -5.1412   16.3650 C   0  0  0  0  0  0  0  0  0  0  0  0
   11.4353   -2.9204   17.8044 C   0  0  0  0  0  0  0  0  0  0  0  0
   11.1529   -4.3028   22.1277 C   0  0  0  0  0  0  0  0  0  0  0  0
   11.1290   -4.8502   19.8052 C   0  0  0  0  0  0  0  0  0  0  0  0
   12.4329   -4.2159   24.4224 C   0  0  0  0  0  0  0  0  0  0  0  0
    3.4740   -9.0387   16.5022 C   0  0  0  0  0  0  0  0  0  0  0  0
    6.8384   -7.9290   17.5282 N   0  0  0  0  0  0  0  0  0  0  0  0
    9.4126   -5.9853   18.4899 C   0  0  0  0  0  0  0  0  0  0  0  0
    4.2064  -10.3242   18.3302 C   0  0  0  0  0  0  0  0  0  0  0  0
    9.6599   -4.1551   16.4796 N   0  0  0  0  0  0  0  0  0  0  0  0
    7.0644   -6.4612   15.7375 N   0  0  0  0  0  0  0  0  0  0  0  0
    5.3549   -9.6322   18.3190 C   0  0  0  0  0  0  0  0  0  0  0  0
   10.3704   -4.9638   18.6510 C   0  0  0  0  0  0  0  0  0  0  0  0
    5.5935   -8.6419   17.4234 C   0  0  0  0  0  0  0  0  0  0  0  0
   13.0726   -4.6648   23.3394 O   0  0  0  0  0  0  0  0  0  0  0  0
    8.5955   -6.0705   17.3996 C   0  0  0  0  0  0  0  0  0  0  0  0
    4.6223   -8.3832   16.5030 C   0  0  0  0  0  0  0  0  0  0  0  0
   12.4690   -5.2624   19.9024 C   0  0  0  0  0  0  0  0  0  0  0  0
    3.2548   -9.9919   17.4189 C   0  0  0  0  0  0  0  0  0  0  0  0
   12.4767   -4.7393   22.1790 C   0  0  0  0  0  0  0  0  0  0  0  0
    7.8593   -5.3772   15.3569 N   0  0  0  0  0  0  0  0  0  0  0  0
    7.4412   -6.9038   16.9283 C   0  0  0  0  0  0  0  0  0  0  0  0
  1 21  4  0
  1 23  4  0
  2  5  1  0
  2 13  4  0
  2 16  4  0
  3  6  4  0
  3  7  4  0
  4 13  4  0
  4 19  4  0
  4 24  4  0
  6 23  4  0
  7 16  1  0
  7 21  4  0
  8 18  1  0
  9 20  4  0
  9 22  4  0
 10 17  1  0
 10 25  1  0
 11 16  4  0
 11 19  4  0
 12 15  4  0
 12 22  4  0
 14 24  4  0
 14 25  4  0
 15 17  4  0
 17 20  4  0
 18 23  1  0
 19 25  4  0
M  END
$$$$

 Created by Python create_sdf_string function

 25 28  0  0  0  0  0  0  0  0999 V2000
   13.1533   -5.2399   21.0682 C   0  0  0  0  0  0  0  0  0  0  0  0
   10.4729   -4.0295   17.6135 C   0  0  0  0  0  0  0  0  0  0  0  0
   10.4789   -4.3641   20.9564 C   0  0  0  0  0  0  0  0  0  0  0  0
    8.7421   -5.1412   16.3650 C   0  0  0  0  0  0  0  0  0  0  0  0
   11.4353   -2.9204   17.8044 C   0  0  0  0  0  0  0  0  0  0  0  0
   11.1529   -4.3028   22.1277 C   0  0  0  0  0  0  0  0  0  0  0  0
   11.1290   -4.8502   19.8052 C   0  0  0  0  0  0  0  0  0  0  0  0
   12.4329   -4.2159   24.4224 C   0  0  0  0  0  0  0  0  0  0  0  0
    3.4740   -9.0387   16.5022 C   0  0  0  0  0  0  0  0  0  0  0  0
    6.8384   -7.9290   17.5282 N   0  0  0  0  0  0  0  0  0  0  0  0
    9.4126   -5.9853   18.4899 C   0  0  0  0  0  0  0  0  0  0  0  0
    4.2064  -10.3242   18.3302 C   0  0  0  0  0  0  0  0  0  0  0  0
    9.6599   -4.1551   16.4796 N   0  0  0  0  0  0  0  0  0  0  0  0
    7.0644   -6.4612   15.7375 N   0  0  0  0  0  0  0  0  0  0  0  0
    5.3549   -9.6322   18.3190 C   0  0  0  0  0  0  0  0  0  0  0  0
   10.3704   -4.9638   18.6510 C   0  0  0  0  0  0  0  0  0  0  0  0
    5.5935   -8.6419   17.4234 C   0  0  0  0  0  0  0  0  0  0  0  0
   13.0726   -4.6648   23.3394 O   0  0  0  0  0  0  0  0  0  0  0  0
    8.5955   -6.0705   17.3996 C   0  0  0  0  0  0  0  0  0  0  0  0
    4.6223   -8.3832   16.5030 C   0  0  0  0  0  0  0  0  0  0  0  0
   12.4690   -5.2624   19.9024 C   0  0  0  0  0  0  0  0  0  0  0  0
    3.2548   -9.9919   17.4189 C   0  0  0  0  0  0  0  0  0  0  0  0
   12.4767   -4.7393   22.1790 C   0  0  0  0  0  0  0  0  0  0  0  0
    7.8593   -5.3772   15.3569 N   0  0  0  0  0  0  0  0  0  0  0  0
    7.4412   -6.9038   16.9283 C   0  0  0  0  0  0  0  0  0  0  0  0
  1 21  4  0
  1 23  4  0
  2  5  1  0
  2 13  4  0
  2 16  4  0
  3  6  4  0
  3  7  4  0
  4 13  4  0
  4 19  4  0
  4 24  4  0
  6 23  4  0
  7 16  1  0
  7 21  4  0
  8 18  1  0
  9 20  4  0
  9 22  4  0
 10 17  1  0
 10 25  1  0
 11 16  4  0
 11 19  4  0
 12 15  4  0
 12 22  4  0
 14 24  4  0
 14 25  4  0
 15 17  4  0
 17 20  4  0
 18 23  1  0
 19 25  4  0
M  END
$$$$

 Created by Python create_sdf_string function

 25 28  0  0  0  0  0  0  0  0999 V2000
   13.1533   -5.2399   21.0682 C   0  0  0  0  0  0  0  0  0  0  0  0
   10.4729   -4.0295   17.6135 C   0  0  0  0  0  0  0  0  0  0  0  0
   10.4789   -4.3641   20.9564 C   0  0  0  0  0  0  0  0  0  0  0  0
    8.7421   -5.1412   16.3650 C   0  0  0  0  0  0  0  0  0  0  0  0
   11.4353   -2.9204   17.8044 C   0  0  0  0  0  0  0  0  0  0  0  0
   11.1529   -4.3028   22.1277 C   0  0  0  0  0  0  0  0  0  0  0  0
   11.1290   -4.8502   19.8052 C   0  0  0  0  0  0  0  0  0  0  0  0
   12.4329   -4.2159   24.4224 C   0  0  0  0  0  0  0  0  0  0  0  0
    3.4740   -9.0387   16.5022 C   0  0  0  0  0  0  0  0  0  0  0  0
    6.8384   -7.9290   17.5282 N   0  0  0  0  0  0  0  0  0  0  0  0
    9.4126   -5.9853   18.4899 C   0  0  0  0  0  0  0  0  0  0  0  0
    4.2064  -10.3242   18.3302 C   0  0  0  0  0  0  0  0  0  0  0  0
    9.6599   -4.1551   16.4796 N   0  0  0  0  0  0  0  0  0  0  0  0
    7.0644   -6.4612   15.7375 N   0  0  0  0  0  0  0  0  0  0  0  0
    5.3549   -9.6322   18.3190 C   0  0  0  0  0  0  0  0  0  0  0  0
   10.3704   -4.9638   18.6510 C   0  0  0  0  0  0  0  0  0  0  0  0
    5.5935   -8.6419   17.4234 C   0  0  0  0  0  0  0  0  0  0  0  0
   13.0726   -4.6648   23.3394 O   0  0  0  0  0  0  0  0  0  0  0  0
    8.5955   -6.0705   17.3996 C   0  0  0  0  0  0  0  0  0  0  0  0
    4.6223   -8.3832   16.5030 C   0  0  0  0  0  0  0  0  0  0  0  0
   12.4690   -5.2624   19.9024 C   0  0  0  0  0  0  0  0  0  0  0  0
    3.2548   -9.9919   17.4189 C   0  0  0  0  0  0  0  0  0  0  0  0
   12.4767   -4.7393   22.1790 C   0  0  0  0  0  0  0  0  0  0  0  0
    7.8593   -5.3772   15.3569 N   0  0  0  0  0  0  0  0  0  0  0  0
    7.4412   -6.9038   16.9283 C   0  0  0  0  0  0  0  0  0  0  0  0
  1 21  4  0
  1 23  4  0
  2  5  1  0
  2 13  4  0
  2 16  4  0
  3  6  4  0
  3  7  4  0
  4 13  4  0
  4 19  4  0
  4 24  4  0
  6 23  4  0
  7 16  1  0
  7 21  4  0
  8 18  1  0
  9 20  4  0
  9 22  4  0
 10 17  1  0
 10 25  1  0
 11 16  4  0
 11 19  4  0
 12 15  4  0
 12 22  4  0
 14 24  4  0
 14 25  4  0
 15 17  4  0
 17 20  4  0
 18 23  1  0
 19 25  4  0
M  END
$$$$

 Created by Python create_sdf_string function

 25 28  0  0  0  0  0  0  0  0999 V2000
   13.1533   -5.2399   21.0682 C   0  0  0  0  0  0  0  0  0  0  0  0
   10.4729   -4.0295   17.6135 C   0  0  0  0  0  0  0  0  0  0  0  0
   10.4789   -4.3641   20.9564 C   0  0  0  0  0  0  0  0  0  0  0  0
    8.7421   -5.1412   16.3650 C   0  0  0  0  0  0  0  0  0  0  0  0
   11.4353   -2.9204   17.8044 C   0  0  0  0  0  0  0  0  0  0  0  0
   11.1529   -4.3028   22.1277 C   0  0  0  0  0  0  0  0  0  0  0  0
   11.1290   -4.8502   19.8052 C   0  0  0  0  0  0  0  0  0  0  0  0
   12.4329   -4.2159   24.4224 C   0  0  0  0  0  0  0  0  0  0  0  0
    3.4740   -9.0387   16.5022 C   0  0  0  0  0  0  0  0  0  0  0  0
    6.8384   -7.9290   17.5282 N   0  0  0  0  0  0  0  0  0  0  0  0
    9.4126   -5.9853   18.4899 C   0  0  0  0  0  0  0  0  0  0  0  0
    4.2064  -10.3242   18.3302 C   0  0  0  0  0  0  0  0  0  0  0  0
    9.6599   -4.1551   16.4796 N   0  0  0  0  0  0  0  0  0  0  0  0
    7.0644   -6.4612   15.7375 N   0  0  0  0  0  0  0  0  0  0  0  0
    5.3549   -9.6322   18.3190 C   0  0  0  0  0  0  0  0  0  0  0  0
   10.3704   -4.9638   18.6510 C   0  0  0  0  0  0  0  0  0  0  0  0
    5.5935   -8.6419   17.4234 C   0  0  0  0  0  0  0  0  0  0  0  0
   13.0726   -4.6648   23.3394 O   0  0  0  0  0  0  0  0  0  0  0  0
    8.5955   -6.0705   17.3996 C   0  0  0  0  0  0  0  0  0  0  0  0
    4.6223   -8.3832   16.5030 C   0  0  0  0  0  0  0  0  0  0  0  0
   12.4690   -5.2624   19.9024 C   0  0  0  0  0  0  0  0  0  0  0  0
    3.2548   -9.9919   17.4189 C   0  0  0  0  0  0  0  0  0  0  0  0
   12.4767   -4.7393   22.1790 C   0  0  0  0  0  0  0  0  0  0  0  0
    7.8593   -5.3772   15.3569 N   0  0  0  0  0  0  0  0  0  0  0  0
    7.4412   -6.9038   16.9283 C   0  0  0  0  0  0  0  0  0  0  0  0
  1 21  4  0
  1 23  4  0
  2  5  1  0
  2 13  4  0
  2 16  4  0
  3  6  4  0
  3  7  4  0
  4 13  4  0
  4 19  4  0
  4 24  4  0
  6 23  4  0
  7 16  1  0
  7 21  4  0
  8 18  1  0
  9 20  4  0
  9 22  4  0
 10 17  1  0
 10 25  1  0
 11 16  4  0
 11 19  4  0
 12 15  4  0
 12 22  4  0
 14 24  4  0
 14 25  4  0
 15 17  4  0
 17 20  4  0
 18 23  1  0
 19 25  4  0
M  END
$$$$

 Created by Python create_sdf_string function

 25 28  0  0  0  0  0  0  0  0999 V2000
   13.1533   -5.2399   21.0682 C   0  0  0  0  0  0  0  0  0  0  0  0
   10.4729   -4.0295   17.6135 C   0  0  0  0  0  0  0  0  0  0  0  0
   10.4789   -4.3641   20.9564 C   0  0  0  0  0  0  0  0  0  0  0  0
    8.7421   -5.1412   16.3650 C   0  0  0  0  0  0  0  0  0  0  0  0
   11.4353   -2.9204   17.8044 C   0  0  0  0  0  0  0  0  0  0  0  0
   11.1529   -4.3028   22.1277 C   0  0  0  0  0  0  0  0  0  0  0  0
   11.1290   -4.8502   19.8052 C   0  0  0  0  0  0  0  0  0  0  0  0
   12.4329   -4.2159   24.4224 C   0  0  0  0  0  0  0  0  0  0  0  0
    3.4740   -9.0387   16.5022 C   0  0  0  0  0  0  0  0  0  0  0  0
    6.8384   -7.9290   17.5282 N   0  0  0  0  0  0  0  0  0  0  0  0
    9.4126   -5.9853   18.4899 C   0  0  0  0  0  0  0  0  0  0  0  0
    4.2064  -10.3242   18.3302 C   0  0  0  0  0  0  0  0  0  0  0  0
    9.6599   -4.1551   16.4796 N   0  0  0  0  0  0  0  0  0  0  0  0
    7.0644   -6.4612   15.7375 N   0  0  0  0  0  0  0  0  0  0  0  0
    5.3549   -9.6322   18.3190 C   0  0  0  0  0  0  0  0  0  0  0  0
   10.3704   -4.9638   18.6510 C   0  0  0  0  0  0  0  0  0  0  0  0
    5.5935   -8.6419   17.4234 C   0  0  0  0  0  0  0  0  0  0  0  0
   13.0726   -4.6648   23.3394 O   0  0  0  0  0  0  0  0  0  0  0  0
    8.5955   -6.0705   17.3996 C   0  0  0  0  0  0  0  0  0  0  0  0
    4.6223   -8.3832   16.5030 C   0  0  0  0  0  0  0  0  0  0  0  0
   12.4690   -5.2624   19.9024 C   0  0  0  0  0  0  0  0  0  0  0  0
    3.2548   -9.9919   17.4189 C   0  0  0  0  0  0  0  0  0  0  0  0
   12.4767   -4.7393   22.1790 C   0  0  0  0  0  0  0  0  0  0  0  0
    7.8593   -5.3772   15.3569 N   0  0  0  0  0  0  0  0  0  0  0  0
    7.4412   -6.9038   16.9283 C   0  0  0  0  0  0  0  0  0  0  0  0
  1 21  4  0
  1 23  4  0
  2  5  1  0
  2 13  4  0
  2 16  4  0
  3  6  4  0
  3  7  4  0
  4 13  4  0
  4 19  4  0
  4 24  4  0
  6 23  4  0
  7 16  1  0
  7 21  4  0
  8 18  1  0
  9 20  4  0
  9 22  4  0
 10 17  1  0
 10 25  1  0
 11 16  4  0
 11 19  4  0
 12 15  4  0
 12 22  4  0
 14 24  4  0
 14 25  4  0
 15 17  4  0
 17 20  4  0
 18 23  1  0
 19 25  4  0
M  END
$$$$

 Created by Python create_sdf_string function

 25 28  0  0  0  0  0  0  0  0999 V2000
   13.1533   -5.2399   21.0682 C   0  0  0  0  0  0  0  0  0  0  0  0
   10.4729   -4.0295   17.6135 C   0  0  0  0  0  0  0  0  0  0  0  0
   10.4789   -4.3641   20.9564 C   0  0  0  0  0  0  0  0  0  0  0  0
    8.7421   -5.1412   16.3650 C   0  0  0  0  0  0  0  0  0  0  0  0
   11.4353   -2.9204   17.8044 C   0  0  0  0  0  0  0  0  0  0  0  0
   11.1529   -4.3028   22.1277 C   0  0  0  0  0  0  0  0  0  0  0  0
   11.1290   -4.8502   19.8052 C   0  0  0  0  0  0  0  0  0  0  0  0
   12.4329   -4.2159   24.4224 C   0  0  0  0  0  0  0  0  0  0  0  0
    3.4740   -9.0387   16.5022 C   0  0  0  0  0  0  0  0  0  0  0  0
    6.8384   -7.9290   17.5282 N   0  0  0  0  0  0  0  0  0  0  0  0
    9.4126   -5.9853   18.4899 C   0  0  0  0  0  0  0  0  0  0  0  0
    4.2064  -10.3242   18.3302 C   0  0  0  0  0  0  0  0  0  0  0  0
    9.6599   -4.1551   16.4796 N   0  0  0  0  0  0  0  0  0  0  0  0
    7.0644   -6.4612   15.7375 N   0  0  0  0  0  0  0  0  0  0  0  0
    5.3549   -9.6322   18.3190 C   0  0  0  0  0  0  0  0  0  0  0  0
   10.3704   -4.9638   18.6510 C   0  0  0  0  0  0  0  0  0  0  0  0
    5.5935   -8.6419   17.4234 C   0  0  0  0  0  0  0  0  0  0  0  0
   13.0726   -4.6648   23.3394 O   0  0  0  0  0  0  0  0  0  0  0  0
    8.5955   -6.0705   17.3996 C   0  0  0  0  0  0  0  0  0  0  0  0
    4.6223   -8.3832   16.5030 C   0  0  0  0  0  0  0  0  0  0  0  0
   12.4690   -5.2624   19.9024 C   0  0  0  0  0  0  0  0  0  0  0  0
    3.2548   -9.9919   17.4189 C   0  0  0  0  0  0  0  0  0  0  0  0
   12.4767   -4.7393   22.1790 C   0  0  0  0  0  0  0  0  0  0  0  0
    7.8593   -5.3772   15.3569 N   0  0  0  0  0  0  0  0  0  0  0  0
    7.4412   -6.9038   16.9283 C   0  0  0  0  0  0  0  0  0  0  0  0
  1 21  4  0
  1 23  4  0
  2  5  1  0
  2 13  4  0
  2 16  4  0
  3  6  4  0
  3  7  4  0
  4 13  4  0
  4 19  4  0
  4 24  4  0
  6 23  4  0
  7 16  1  0
  7 21  4  0
  8 18  1  0
  9 20  4  0
  9 22  4  0
 10 17  1  0
 10 25  1  0
 11 16  4  0
 11 19  4  0
 12 15  4  0
 12 22  4  0
 14 24  4  0
 14 25  4  0
 15 17  4  0
 17 20  4  0
 18 23  1  0
 19 25  4  0
M  END
$$$$

 Created by Python create_sdf_string function

 25 28  0  0  0  0  0  0  0  0999 V2000
   13.1533   -5.2399   21.0682 C   0  0  0  0  0  0  0  0  0  0  0  0
   10.4729   -4.0295   17.6135 C   0  0  0  0  0  0  0  0  0  0  0  0
   10.4789   -4.3641   20.9564 C   0  0  0  0  0  0  0  0  0  0  0  0
    8.7421   -5.1412   16.3650 C   0  0  0  0  0  0  0  0  0  0  0  0
   11.4353   -2.9204   17.8044 C   0  0  0  0  0  0  0  0  0  0  0  0
   11.1529   -4.3028   22.1277 C   0  0  0  0  0  0  0  0  0  0  0  0
   11.1290   -4.8502   19.8052 C   0  0  0  0  0  0  0  0  0  0  0  0
   12.4329   -4.2159   24.4224 C   0  0  0  0  0  0  0  0  0  0  0  0
    3.4740   -9.0387   16.5022 C   0  0  0  0  0  0  0  0  0  0  0  0
    6.8384   -7.9290   17.5282 N   0  0  0  0  0  0  0  0  0  0  0  0
    9.4126   -5.9853   18.4899 C   0  0  0  0  0  0  0  0  0  0  0  0
    4.2064  -10.3242   18.3302 C   0  0  0  0  0  0  0  0  0  0  0  0
    9.6599   -4.1551   16.4796 N   0  0  0  0  0  0  0  0  0  0  0  0
    7.0644   -6.4612   15.7375 N   0  0  0  0  0  0  0  0  0  0  0  0
    5.3549   -9.6322   18.3190 C   0  0  0  0  0  0  0  0  0  0  0  0
   10.3704   -4.9638   18.6510 C   0  0  0  0  0  0  0  0  0  0  0  0
    5.5935   -8.6419   17.4234 C   0  0  0  0  0  0  0  0  0  0  0  0
   13.0726   -4.6648   23.3394 O   0  0  0  0  0  0  0  0  0  0  0  0
    8.5955   -6.0705   17.3996 C   0  0  0  0  0  0  0  0  0  0  0  0
    4.6223   -8.3832   16.5030 C   0  0  0  0  0  0  0  0  0  0  0  0
   12.4690   -5.2624   19.9024 C   0  0  0  0  0  0  0  0  0  0  0  0
    3.2548   -9.9919   17.4189 C   0  0  0  0  0  0  0  0  0  0  0  0
   12.4767   -4.7393   22.1790 C   0  0  0  0  0  0  0  0  0  0  0  0
    7.8593   -5.3772   15.3569 N   0  0  0  0  0  0  0  0  0  0  0  0
    7.4412   -6.9038   16.9283 C   0  0  0  0  0  0  0  0  0  0  0  0
  1 21  4  0
  1 23  4  0
  2  5  1  0
  2 13  4  0
  2 16  4  0
  3  6  4  0
  3  7  4  0
  4 13  4  0
  4 19  4  0
  4 24  4  0
  6 23  4  0
  7 16  1  0
  7 21  4  0
  8 18  1  0
  9 20  4  0
  9 22  4  0
 10 17  1  0
 10 25  1  0
 11 16  4  0
 11 19  4  0
 12 15  4  0
 12 22  4  0
 14 24  4  0
 14 25  4  0
 15 17  4  0
 17 20  4  0
 18 23  1  0
 19 25  4  0
M  END
$$$$

 Created by Python create_sdf_string function

 25 28  0  0  0  0  0  0  0  0999 V2000
   13.1533   -5.2399   21.0682 C   0  0  0  0  0  0  0  0  0  0  0  0
   10.4729   -4.0295   17.6135 C   0  0  0  0  0  0  0  0  0  0  0  0
   10.4789   -4.3641   20.9564 C   0  0  0  0  0  0  0  0  0  0  0  0
    8.7421   -5.1412   16.3650 C   0  0  0  0  0  0  0  0  0  0  0  0
   11.4353   -2.9204   17.8044 C   0  0  0  0  0  0  0  0  0  0  0  0
   11.1529   -4.3028   22.1277 C   0  0  0  0  0  0  0  0  0  0  0  0
   11.1290   -4.8502   19.8052 C   0  0  0  0  0  0  0  0  0  0  0  0
   12.4329   -4.2159   24.4224 C   0  0  0  0  0  0  0  0  0  0  0  0
    3.4740   -9.0387   16.5022 C   0  0  0  0  0  0  0  0  0  0  0  0
    6.8384   -7.9290   17.5282 N   0  0  0  0  0  0  0  0  0  0  0  0
    9.4126   -5.9853   18.4899 C   0  0  0  0  0  0  0  0  0  0  0  0
    4.2064  -10.3242   18.3302 C   0  0  0  0  0  0  0  0  0  0  0  0
    9.6599   -4.1551   16.4796 N   0  0  0  0  0  0  0  0  0  0  0  0
    7.0644   -6.4612   15.7375 N   0  0  0  0  0  0  0  0  0  0  0  0
    5.3549   -9.6322   18.3190 C   0  0  0  0  0  0  0  0  0  0  0  0
   10.3704   -4.9638   18.6510 C   0  0  0  0  0  0  0  0  0  0  0  0
    5.5935   -8.6419   17.4234 C   0  0  0  0  0  0  0  0  0  0  0  0
   13.0726   -4.6648   23.3394 O   0  0  0  0  0  0  0  0  0  0  0  0
    8.5955   -6.0705   17.3996 C   0  0  0  0  0  0  0  0  0  0  0  0
    4.6223   -8.3832   16.5030 C   0  0  0  0  0  0  0  0  0  0  0  0
   12.4690   -5.2624   19.9024 C   0  0  0  0  0  0  0  0  0  0  0  0
    3.2548   -9.9919   17.4189 C   0  0  0  0  0  0  0  0  0  0  0  0
   12.4767   -4.7393   22.1790 C   0  0  0  0  0  0  0  0  0  0  0  0
    7.8593   -5.3772   15.3569 N   0  0  0  0  0  0  0  0  0  0  0  0
    7.4412   -6.9038   16.9283 C   0  0  0  0  0  0  0  0  0  0  0  0
  1 21  4  0
  1 23  4  0
  2  5  1  0
  2 13  4  0
  2 16  4  0
  3  6  4  0
  3  7  4  0
  4 13  4  0
  4 19  4  0
  4 24  4  0
  6 23  4  0
  7 16  1  0
  7 21  4  0
  8 18  1  0
  9 20  4  0
  9 22  4  0
 10 17  1  0
 10 25  1  0
 11 16  4  0
 11 19  4  0
 12 15  4  0
 12 22  4  0
 14 24  4  0
 14 25  4  0
 15 17  4  0
 17 20  4  0
 18 23  1  0
 19 25  4  0
M  END
$$$$

 Created by Python create_sdf_string function

 25 28  0  0  0  0  0  0  0  0999 V2000
   13.1533   -5.2399   21.0682 C   0  0  0  0  0  0  0  0  0  0  0  0
   10.4729   -4.0295   17.6135 C   0  0  0  0  0  0  0  0  0  0  0  0
   10.4789   -4.3641   20.9564 C   0  0  0  0  0  0  0  0  0  0  0  0
    8.7421   -5.1412   16.3650 C   0  0  0  0  0  0  0  0  0  0  0  0
   11.4353   -2.9204   17.8044 C   0  0  0  0  0  0  0  0  0  0  0  0
   11.1529   -4.3028   22.1277 C   0  0  0  0  0  0  0  0  0  0  0  0
   11.1290   -4.8502   19.8052 C   0  0  0  0  0  0  0  0  0  0  0  0
   12.4329   -4.2159   24.4224 C   0  0  0  0  0  0  0  0  0  0  0  0
    3.4740   -9.0387   16.5022 C   0  0  0  0  0  0  0  0  0  0  0  0
    6.8384   -7.9290   17.5282 N   0  0  0  0  0  0  0  0  0  0  0  0
    9.4126   -5.9853   18.4899 C   0  0  0  0  0  0  0  0  0  0  0  0
    4.2064  -10.3242   18.3302 C   0  0  0  0  0  0  0  0  0  0  0  0
    9.6599   -4.1551   16.4796 N   0  0  0  0  0  0  0  0  0  0  0  0
    7.0644   -6.4612   15.7375 N   0  0  0  0  0  0  0  0  0  0  0  0
    5.3549   -9.6322   18.3190 C   0  0  0  0  0  0  0  0  0  0  0  0
   10.3704   -4.9638   18.6510 C   0  0  0  0  0  0  0  0  0  0  0  0
    5.5935   -8.6419   17.4234 C   0  0  0  0  0  0  0  0  0  0  0  0
   13.0726   -4.6648   23.3394 O   0  0  0  0  0  0  0  0  0  0  0  0
    8.5955   -6.0705   17.3996 C   0  0  0  0  0  0  0  0  0  0  0  0
    4.6223   -8.3832   16.5030 C   0  0  0  0  0  0  0  0  0  0  0  0
   12.4690   -5.2624   19.9024 C   0  0  0  0  0  0  0  0  0  0  0  0
    3.2548   -9.9919   17.4189 C   0  0  0  0  0  0  0  0  0  0  0  0
   12.4767   -4.7393   22.1790 C   0  0  0  0  0  0  0  0  0  0  0  0
    7.8593   -5.3772   15.3569 N   0  0  0  0  0  0  0  0  0  0  0  0
    7.4412   -6.9038   16.9283 C   0  0  0  0  0  0  0  0  0  0  0  0
  1 21  4  0
  1 23  4  0
  2  5  1  0
  2 13  4  0
  2 16  4  0
  3  6  4  0
  3  7  4  0
  4 13  4  0
  4 19  4  0
  4 24  4  0
  6 23  4  0
  7 16  1  0
  7 21  4  0
  8 18  1  0
  9 20  4  0
  9 22  4  0
 10 17  1  0
 10 25  1  0
 11 16  4  0
 11 19  4  0
 12 15  4  0
 12 22  4  0
 14 24  4  0
 14 25  4  0
 15 17  4  0
 17 20  4  0
 18 23  1  0
 19 25  4  0
M  END
$$$$

 Created by Python create_sdf_string function

 25 28  0  0  0  0  0  0  0  0999 V2000
   13.1533   -5.2399   21.0682 C   0  0  0  0  0  0  0  0  0  0  0  0
   10.4729   -4.0295   17.6135 C   0  0  0  0  0  0  0  0  0  0  0  0
   10.4789   -4.3641   20.9564 C   0  0  0  0  0  0  0  0  0  0  0  0
    8.7421   -5.1412   16.3650 C   0  0  0  0  0  0  0  0  0  0  0  0
   11.4353   -2.9204   17.8044 C   0  0  0  0  0  0  0  0  0  0  0  0
   11.1529   -4.3028   22.1277 C   0  0  0  0  0  0  0  0  0  0  0  0
   11.1290   -4.8502   19.8052 C   0  0  0  0  0  0  0  0  0  0  0  0
   12.4329   -4.2159   24.4224 C   0  0  0  0  0  0  0  0  0  0  0  0
    3.4740   -9.0387   16.5022 C   0  0  0  0  0  0  0  0  0  0  0  0
    6.8384   -7.9290   17.5282 N   0  0  0  0  0  0  0  0  0  0  0  0
    9.4126   -5.9853   18.4899 C   0  0  0  0  0  0  0  0  0  0  0  0
    4.2064  -10.3242   18.3302 C   0  0  0  0  0  0  0  0  0  0  0  0
    9.6599   -4.1551   16.4796 N   0  0  0  0  0  0  0  0  0  0  0  0
    7.0644   -6.4612   15.7375 N   0  0  0  0  0  0  0  0  0  0  0  0
    5.3549   -9.6322   18.3190 C   0  0  0  0  0  0  0  0  0  0  0  0
   10.3704   -4.9638   18.6510 C   0  0  0  0  0  0  0  0  0  0  0  0
    5.5935   -8.6419   17.4234 C   0  0  0  0  0  0  0  0  0  0  0  0
   13.0726   -4.6648   23.3394 O   0  0  0  0  0  0  0  0  0  0  0  0
    8.5955   -6.0705   17.3996 C   0  0  0  0  0  0  0  0  0  0  0  0
    4.6223   -8.3832   16.5030 C   0  0  0  0  0  0  0  0  0  0  0  0
   12.4690   -5.2624   19.9024 C   0  0  0  0  0  0  0  0  0  0  0  0
    3.2548   -9.9919   17.4189 C   0  0  0  0  0  0  0  0  0  0  0  0
   12.4767   -4.7393   22.1790 C   0  0  0  0  0  0  0  0  0  0  0  0
    7.8593   -5.3772   15.3569 N   0  0  0  0  0  0  0  0  0  0  0  0
    7.4412   -6.9038   16.9283 C   0  0  0  0  0  0  0  0  0  0  0  0
  1 21  4  0
  1 23  4  0
  2  5  1  0
  2 13  4  0
  2 16  4  0
  3  6  4  0
  3  7  4  0
  4 13  4  0
  4 19  4  0
  4 24  4  0
  6 23  4  0
  7 16  1  0
  7 21  4  0
  8 18  1  0
  9 20  4  0
  9 22  4  0
 10 17  1  0
 10 25  1  0
 11 16  4  0
 11 19  4  0
 12 15  4  0
 12 22  4  0
 14 24  4  0
 14 25  4  0
 15 17  4  0
 17 20  4  0
 18 23  1  0
 19 25  4  0
M  END
$$$$

 Created by Python create_sdf_string function

 25 28  0  0  0  0  0  0  0  0999 V2000
   13.1533   -5.2399   21.0682 C   0  0  0  0  0  0  0  0  0  0  0  0
   10.4729   -4.0295   17.6135 C   0  0  0  0  0  0  0  0  0  0  0  0
   10.4789   -4.3641   20.9564 C   0  0  0  0  0  0  0  0  0  0  0  0
    8.7421   -5.1412   16.3650 C   0  0  0  0  0  0  0  0  0  0  0  0
   11.4353   -2.9204   17.8044 C   0  0  0  0  0  0  0  0  0  0  0  0
   11.1529   -4.3028   22.1277 C   0  0  0  0  0  0  0  0  0  0  0  0
   11.1290   -4.8502   19.8052 C   0  0  0  0  0  0  0  0  0  0  0  0
   12.4329   -4.2159   24.4224 C   0  0  0  0  0  0  0  0  0  0  0  0
    3.4740   -9.0387   16.5022 C   0  0  0  0  0  0  0  0  0  0  0  0
    6.8384   -7.9290   17.5282 N   0  0  0  0  0  0  0  0  0  0  0  0
    9.4126   -5.9853   18.4899 C   0  0  0  0  0  0  0  0  0  0  0  0
    4.2064  -10.3242   18.3302 C   0  0  0  0  0  0  0  0  0  0  0  0
    9.6599   -4.1551   16.4796 N   0  0  0  0  0  0  0  0  0  0  0  0
    7.0644   -6.4612   15.7375 N   0  0  0  0  0  0  0  0  0  0  0  0
    5.3549   -9.6322   18.3190 C   0  0  0  0  0  0  0  0  0  0  0  0
   10.3704   -4.9638   18.6510 C   0  0  0  0  0  0  0  0  0  0  0  0
    5.5935   -8.6419   17.4234 C   0  0  0  0  0  0  0  0  0  0  0  0
   13.0726   -4.6648   23.3394 O   0  0  0  0  0  0  0  0  0  0  0  0
    8.5955   -6.0705   17.3996 C   0  0  0  0  0  0  0  0  0  0  0  0
    4.6223   -8.3832   16.5030 C   0  0  0  0  0  0  0  0  0  0  0  0
   12.4690   -5.2624   19.9024 C   0  0  0  0  0  0  0  0  0  0  0  0
    3.2548   -9.9919   17.4189 C   0  0  0  0  0  0  0  0  0  0  0  0
   12.4767   -4.7393   22.1790 C   0  0  0  0  0  0  0  0  0  0  0  0
    7.8593   -5.3772   15.3569 N   0  0  0  0  0  0  0  0  0  0  0  0
    7.4412   -6.9038   16.9283 C   0  0  0  0  0  0  0  0  0  0  0  0
  1 21  4  0
  1 23  4  0
  2  5  1  0
  2 13  4  0
  2 16  4  0
  3  6  4  0
  3  7  4  0
  4 13  4  0
  4 19  4  0
  4 24  4  0
  6 23  4  0
  7 16  1  0
  7 21  4  0
  8 18  1  0
  9 20  4  0
  9 22  4  0
 10 17  1  0
 10 25  1  0
 11 16  4  0
 11 19  4  0
 12 15  4  0
 12 22  4  0
 14 24  4  0
 14 25  4  0
 15 17  4  0
 17 20  4  0
 18 23  1  0
 19 25  4  0
M  END
$$$$

 Created by Python create_sdf_string function

 25 28  0  0  0  0  0  0  0  0999 V2000
   13.1533   -5.2399   21.0682 C   0  0  0  0  0  0  0  0  0  0  0  0
   10.4729   -4.0295   17.6135 C   0  0  0  0  0  0  0  0  0  0  0  0
   10.4789   -4.3641   20.9564 C   0  0  0  0  0  0  0  0  0  0  0  0
    8.7421   -5.1412   16.3650 C   0  0  0  0  0  0  0  0  0  0  0  0
   11.4353   -2.9204   17.8044 C   0  0  0  0  0  0  0  0  0  0  0  0
   11.1529   -4.3028   22.1277 C   0  0  0  0  0  0  0  0  0  0  0  0
   11.1290   -4.8502   19.8052 C   0  0  0  0  0  0  0  0  0  0  0  0
   12.4329   -4.2159   24.4224 C   0  0  0  0  0  0  0  0  0  0  0  0
    3.4740   -9.0387   16.5022 C   0  0  0  0  0  0  0  0  0  0  0  0
    6.8384   -7.9290   17.5282 N   0  0  0  0  0  0  0  0  0  0  0  0
    9.4126   -5.9853   18.4899 C   0  0  0  0  0  0  0  0  0  0  0  0
    4.2064  -10.3242   18.3302 C   0  0  0  0  0  0  0  0  0  0  0  0
    9.6599   -4.1551   16.4796 N   0  0  0  0  0  0  0  0  0  0  0  0
    7.0644   -6.4612   15.7375 N   0  0  0  0  0  0  0  0  0  0  0  0
    5.3549   -9.6322   18.3190 C   0  0  0  0  0  0  0  0  0  0  0  0
   10.3704   -4.9638   18.6510 C   0  0  0  0  0  0  0  0  0  0  0  0
    5.5935   -8.6419   17.4234 C   0  0  0  0  0  0  0  0  0  0  0  0
   13.0726   -4.6648   23.3394 O   0  0  0  0  0  0  0  0  0  0  0  0
    8.5955   -6.0705   17.3996 C   0  0  0  0  0  0  0  0  0  0  0  0
    4.6223   -8.3832   16.5030 C   0  0  0  0  0  0  0  0  0  0  0  0
   12.4690   -5.2624   19.9024 C   0  0  0  0  0  0  0  0  0  0  0  0
    3.2548   -9.9919   17.4189 C   0  0  0  0  0  0  0  0  0  0  0  0
   12.4767   -4.7393   22.1790 C   0  0  0  0  0  0  0  0  0  0  0  0
    7.8593   -5.3772   15.3569 N   0  0  0  0  0  0  0  0  0  0  0  0
    7.4412   -6.9038   16.9283 C   0  0  0  0  0  0  0  0  0  0  0  0
  1 21  4  0
  1 23  4  0
  2  5  1  0
  2 13  4  0
  2 16  4  0
  3  6  4  0
  3  7  4  0
  4 13  4  0
  4 19  4  0
  4 24  4  0
  6 23  4  0
  7 16  1  0
  7 21  4  0
  8 18  1  0
  9 20  4  0
  9 22  4  0
 10 17  1  0
 10 25  1  0
 11 16  4  0
 11 19  4  0
 12 15  4  0
 12 22  4  0
 14 24  4  0
 14 25  4  0
 15 17  4  0
 17 20  4  0
 18 23  1  0
 19 25  4  0
M  END
$$$$

 Created by Python create_sdf_string function

 25 28  0  0  0  0  0  0  0  0999 V2000
   13.1533   -5.2399   21.0682 C   0  0  0  0  0  0  0  0  0  0  0  0
   10.4729   -4.0295   17.6135 C   0  0  0  0  0  0  0  0  0  0  0  0
   10.4789   -4.3641   20.9564 C   0  0  0  0  0  0  0  0  0  0  0  0
    8.7421   -5.1412   16.3650 C   0  0  0  0  0  0  0  0  0  0  0  0
   11.4353   -2.9204   17.8044 C   0  0  0  0  0  0  0  0  0  0  0  0
   11.1529   -4.3028   22.1277 C   0  0  0  0  0  0  0  0  0  0  0  0
   11.1290   -4.8502   19.8052 C   0  0  0  0  0  0  0  0  0  0  0  0
   12.4329   -4.2159   24.4224 C   0  0  0  0  0  0  0  0  0  0  0  0
    3.4740   -9.0387   16.5022 C   0  0  0  0  0  0  0  0  0  0  0  0
    6.8384   -7.9290   17.5282 N   0  0  0  0  0  0  0  0  0  0  0  0
    9.4126   -5.9853   18.4899 C   0  0  0  0  0  0  0  0  0  0  0  0
    4.2064  -10.3242   18.3302 C   0  0  0  0  0  0  0  0  0  0  0  0
    9.6599   -4.1551   16.4796 N   0  0  0  0  0  0  0  0  0  0  0  0
    7.0644   -6.4612   15.7375 N   0  0  0  0  0  0  0  0  0  0  0  0
    5.3549   -9.6322   18.3190 C   0  0  0  0  0  0  0  0  0  0  0  0
   10.3704   -4.9638   18.6510 C   0  0  0  0  0  0  0  0  0  0  0  0
    5.5935   -8.6419   17.4234 C   0  0  0  0  0  0  0  0  0  0  0  0
   13.0726   -4.6648   23.3394 O   0  0  0  0  0  0  0  0  0  0  0  0
    8.5955   -6.0705   17.3996 C   0  0  0  0  0  0  0  0  0  0  0  0
    4.6223   -8.3832   16.5030 C   0  0  0  0  0  0  0  0  0  0  0  0
   12.4690   -5.2624   19.9024 C   0  0  0  0  0  0  0  0  0  0  0  0
    3.2548   -9.9919   17.4189 C   0  0  0  0  0  0  0  0  0  0  0  0
   12.4767   -4.7393   22.1790 C   0  0  0  0  0  0  0  0  0  0  0  0
    7.8593   -5.3772   15.3569 N   0  0  0  0  0  0  0  0  0  0  0  0
    7.4412   -6.9038   16.9283 C   0  0  0  0  0  0  0  0  0  0  0  0
  1 21  4  0
  1 23  4  0
  2  5  1  0
  2 13  4  0
  2 16  4  0
  3  6  4  0
  3  7  4  0
  4 13  4  0
  4 19  4  0
  4 24  4  0
  6 23  4  0
  7 16  1  0
  7 21  4  0
  8 18  1  0
  9 20  4  0
  9 22  4  0
 10 17  1  0
 10 25  1  0
 11 16  4  0
 11 19  4  0
 12 15  4  0
 12 22  4  0
 14 24  4  0
 14 25  4  0
 15 17  4  0
 17 20  4  0
 18 23  1  0
 19 25  4  0
M  END
$$$$

 Created by Python create_sdf_string function

 25 28  0  0  0  0  0  0  0  0999 V2000
   13.1533   -5.2399   21.0682 C   0  0  0  0  0  0  0  0  0  0  0  0
   10.4729   -4.0295   17.6135 C   0  0  0  0  0  0  0  0  0  0  0  0
   10.4789   -4.3641   20.9564 C   0  0  0  0  0  0  0  0  0  0  0  0
    8.7421   -5.1412   16.3650 C   0  0  0  0  0  0  0  0  0  0  0  0
   11.4353   -2.9204   17.8044 C   0  0  0  0  0  0  0  0  0  0  0  0
   11.1529   -4.3028   22.1277 C   0  0  0  0  0  0  0  0  0  0  0  0
   11.1290   -4.8502   19.8052 C   0  0  0  0  0  0  0  0  0  0  0  0
   12.4329   -4.2159   24.4224 C   0  0  0  0  0  0  0  0  0  0  0  0
    3.4740   -9.0387   16.5022 C   0  0  0  0  0  0  0  0  0  0  0  0
    6.8384   -7.9290   17.5282 N   0  0  0  0  0  0  0  0  0  0  0  0
    9.4126   -5.9853   18.4899 C   0  0  0  0  0  0  0  0  0  0  0  0
    4.2064  -10.3242   18.3302 C   0  0  0  0  0  0  0  0  0  0  0  0
    9.6599   -4.1551   16.4796 N   0  0  0  0  0  0  0  0  0  0  0  0
    7.0644   -6.4612   15.7375 N   0  0  0  0  0  0  0  0  0  0  0  0
    5.3549   -9.6322   18.3190 C   0  0  0  0  0  0  0  0  0  0  0  0
   10.3704   -4.9638   18.6510 C   0  0  0  0  0  0  0  0  0  0  0  0
    5.5935   -8.6419   17.4234 C   0  0  0  0  0  0  0  0  0  0  0  0
   13.0726   -4.6648   23.3394 O   0  0  0  0  0  0  0  0  0  0  0  0
    8.5955   -6.0705   17.3996 C   0  0  0  0  0  0  0  0  0  0  0  0
    4.6223   -8.3832   16.5030 C   0  0  0  0  0  0  0  0  0  0  0  0
   12.4690   -5.2624   19.9024 C   0  0  0  0  0  0  0  0  0  0  0  0
    3.2548   -9.9919   17.4189 C   0  0  0  0  0  0  0  0  0  0  0  0
   12.4767   -4.7393   22.1790 C   0  0  0  0  0  0  0  0  0  0  0  0
    7.8593   -5.3772   15.3569 N   0  0  0  0  0  0  0  0  0  0  0  0
    7.4412   -6.9038   16.9283 C   0  0  0  0  0  0  0  0  0  0  0  0
  1 21  4  0
  1 23  4  0
  2  5  1  0
  2 13  4  0
  2 16  4  0
  3  6  4  0
  3  7  4  0
  4 13  4  0
  4 19  4  0
  4 24  4  0
  6 23  4  0
  7 16  1  0
  7 21  4  0
  8 18  1  0
  9 20  4  0
  9 22  4  0
 10 17  1  0
 10 25  1  0
 11 16  4  0
 11 19  4  0
 12 15  4  0
 12 22  4  0
 14 24  4  0
 14 25  4  0
 15 17  4  0
 17 20  4  0
 18 23  1  0
 19 25  4  0
M  END
$$$$

 Created by Python create_sdf_string function

 25 28  0  0  0  0  0  0  0  0999 V2000
   13.1533   -5.2399   21.0682 C   0  0  0  0  0  0  0  0  0  0  0  0
   10.4729   -4.0295   17.6135 C   0  0  0  0  0  0  0  0  0  0  0  0
   10.4789   -4.3641   20.9564 C   0  0  0  0  0  0  0  0  0  0  0  0
    8.7421   -5.1412   16.3650 C   0  0  0  0  0  0  0  0  0  0  0  0
   11.4353   -2.9204   17.8044 C   0  0  0  0  0  0  0  0  0  0  0  0
   11.1529   -4.3028   22.1277 C   0  0  0  0  0  0  0  0  0  0  0  0
   11.1290   -4.8502   19.8052 C   0  0  0  0  0  0  0  0  0  0  0  0
   12.4329   -4.2159   24.4224 C   0  0  0  0  0  0  0  0  0  0  0  0
    3.4740   -9.0387   16.5022 C   0  0  0  0  0  0  0  0  0  0  0  0
    6.8384   -7.9290   17.5282 N   0  0  0  0  0  0  0  0  0  0  0  0
    9.4126   -5.9853   18.4899 C   0  0  0  0  0  0  0  0  0  0  0  0
    4.2064  -10.3242   18.3302 C   0  0  0  0  0  0  0  0  0  0  0  0
    9.6599   -4.1551   16.4796 N   0  0  0  0  0  0  0  0  0  0  0  0
    7.0644   -6.4612   15.7375 N   0  0  0  0  0  0  0  0  0  0  0  0
    5.3549   -9.6322   18.3190 C   0  0  0  0  0  0  0  0  0  0  0  0
   10.3704   -4.9638   18.6510 C   0  0  0  0  0  0  0  0  0  0  0  0
    5.5935   -8.6419   17.4234 C   0  0  0  0  0  0  0  0  0  0  0  0
   13.0726   -4.6648   23.3394 O   0  0  0  0  0  0  0  0  0  0  0  0
    8.5955   -6.0705   17.3996 C   0  0  0  0  0  0  0  0  0  0  0  0
    4.6223   -8.3832   16.5030 C   0  0  0  0  0  0  0  0  0  0  0  0
   12.4690   -5.2624   19.9024 C   0  0  0  0  0  0  0  0  0  0  0  0
    3.2548   -9.9919   17.4189 C   0  0  0  0  0  0  0  0  0  0  0  0
   12.4767   -4.7393   22.1790 C   0  0  0  0  0  0  0  0  0  0  0  0
    7.8593   -5.3772   15.3569 N   0  0  0  0  0  0  0  0  0  0  0  0
    7.4412   -6.9038   16.9283 C   0  0  0  0  0  0  0  0  0  0  0  0
  1 21  4  0
  1 23  4  0
  2  5  1  0
  2 13  4  0
  2 16  4  0
  3  6  4  0
  3  7  4  0
  4 13  4  0
  4 19  4  0
  4 24  4  0
  6 23  4  0
  7 16  1  0
  7 21  4  0
  8 18  1  0
  9 20  4  0
  9 22  4  0
 10 17  1  0
 10 25  1  0
 11 16  4  0
 11 19  4  0
 12 15  4  0
 12 22  4  0
 14 24  4  0
 14 25  4  0
 15 17  4  0
 17 20  4  0
 18 23  1  0
 19 25  4  0
M  END
$$$$

 Created by Python create_sdf_string function

 25 28  0  0  0  0  0  0  0  0999 V2000
   13.1533   -5.2399   21.0682 C   0  0  0  0  0  0  0  0  0  0  0  0
   10.4729   -4.0295   17.6135 C   0  0  0  0  0  0  0  0  0  0  0  0
   10.4789   -4.3641   20.9564 C   0  0  0  0  0  0  0  0  0  0  0  0
    8.7421   -5.1412   16.3650 C   0  0  0  0  0  0  0  0  0  0  0  0
   11.4353   -2.9204   17.8044 C   0  0  0  0  0  0  0  0  0  0  0  0
   11.1529   -4.3028   22.1277 C   0  0  0  0  0  0  0  0  0  0  0  0
   11.1290   -4.8502   19.8052 C   0  0  0  0  0  0  0  0  0  0  0  0
   12.4329   -4.2159   24.4224 C   0  0  0  0  0  0  0  0  0  0  0  0
    3.4740   -9.0387   16.5022 C   0  0  0  0  0  0  0  0  0  0  0  0
    6.8384   -7.9290   17.5282 N   0  0  0  0  0  0  0  0  0  0  0  0
    9.4126   -5.9853   18.4899 C   0  0  0  0  0  0  0  0  0  0  0  0
    4.2064  -10.3242   18.3302 C   0  0  0  0  0  0  0  0  0  0  0  0
    9.6599   -4.1551   16.4796 N   0  0  0  0  0  0  0  0  0  0  0  0
    7.0644   -6.4612   15.7375 N   0  0  0  0  0  0  0  0  0  0  0  0
    5.3549   -9.6322   18.3190 C   0  0  0  0  0  0  0  0  0  0  0  0
   10.3704   -4.9638   18.6510 C   0  0  0  0  0  0  0  0  0  0  0  0
    5.5935   -8.6419   17.4234 C   0  0  0  0  0  0  0  0  0  0  0  0
   13.0726   -4.6648   23.3394 O   0  0  0  0  0  0  0  0  0  0  0  0
    8.5955   -6.0705   17.3996 C   0  0  0  0  0  0  0  0  0  0  0  0
    4.6223   -8.3832   16.5030 C   0  0  0  0  0  0  0  0  0  0  0  0
   12.4690   -5.2624   19.9024 C   0  0  0  0  0  0  0  0  0  0  0  0
    3.2548   -9.9919   17.4189 C   0  0  0  0  0  0  0  0  0  0  0  0
   12.4767   -4.7393   22.1790 C   0  0  0  0  0  0  0  0  0  0  0  0
    7.8593   -5.3772   15.3569 N   0  0  0  0  0  0  0  0  0  0  0  0
    7.4412   -6.9038   16.9283 C   0  0  0  0  0  0  0  0  0  0  0  0
  1 21  4  0
  1 23  4  0
  2  5  1  0
  2 13  4  0
  2 16  4  0
  3  6  4  0
  3  7  4  0
  4 13  4  0
  4 19  4  0
  4 24  4  0
  6 23  4  0
  7 16  1  0
  7 21  4  0
  8 18  1  0
  9 20  4  0
  9 22  4  0
 10 17  1  0
 10 25  1  0
 11 16  4  0
 11 19  4  0
 12 15  4  0
 12 22  4  0
 14 24  4  0
 14 25  4  0
 15 17  4  0
 17 20  4  0
 18 23  1  0
 19 25  4  0
M  END
$$$$

 Created by Python create_sdf_string function

 25 28  0  0  0  0  0  0  0  0999 V2000
   13.1533   -5.2399   21.0682 C   0  0  0  0  0  0  0  0  0  0  0  0
   10.4729   -4.0295   17.6135 C   0  0  0  0  0  0  0  0  0  0  0  0
   10.4789   -4.3641   20.9564 C   0  0  0  0  0  0  0  0  0  0  0  0
    8.7421   -5.1412   16.3650 C   0  0  0  0  0  0  0  0  0  0  0  0
   11.4353   -2.9204   17.8044 C   0  0  0  0  0  0  0  0  0  0  0  0
   11.1529   -4.3028   22.1277 C   0  0  0  0  0  0  0  0  0  0  0  0
   11.1290   -4.8502   19.8052 C   0  0  0  0  0  0  0  0  0  0  0  0
   12.4329   -4.2159   24.4224 C   0  0  0  0  0  0  0  0  0  0  0  0
    3.4740   -9.0387   16.5022 C   0  0  0  0  0  0  0  0  0  0  0  0
    6.8384   -7.9290   17.5282 N   0  0  0  0  0  0  0  0  0  0  0  0
    9.4126   -5.9853   18.4899 C   0  0  0  0  0  0  0  0  0  0  0  0
    4.2064  -10.3242   18.3302 C   0  0  0  0  0  0  0  0  0  0  0  0
    9.6599   -4.1551   16.4796 N   0  0  0  0  0  0  0  0  0  0  0  0
    7.0644   -6.4612   15.7375 N   0  0  0  0  0  0  0  0  0  0  0  0
    5.3549   -9.6322   18.3190 C   0  0  0  0  0  0  0  0  0  0  0  0
   10.3704   -4.9638   18.6510 C   0  0  0  0  0  0  0  0  0  0  0  0
    5.5935   -8.6419   17.4234 C   0  0  0  0  0  0  0  0  0  0  0  0
   13.0726   -4.6648   23.3394 O   0  0  0  0  0  0  0  0  0  0  0  0
    8.5955   -6.0705   17.3996 C   0  0  0  0  0  0  0  0  0  0  0  0
    4.6223   -8.3832   16.5030 C   0  0  0  0  0  0  0  0  0  0  0  0
   12.4690   -5.2624   19.9024 C   0  0  0  0  0  0  0  0  0  0  0  0
    3.2548   -9.9919   17.4189 C   0  0  0  0  0  0  0  0  0  0  0  0
   12.4767   -4.7393   22.1790 C   0  0  0  0  0  0  0  0  0  0  0  0
    7.8593   -5.3772   15.3569 N   0  0  0  0  0  0  0  0  0  0  0  0
    7.4412   -6.9038   16.9283 C   0  0  0  0  0  0  0  0  0  0  0  0
  1 21  4  0
  1 23  4  0
  2  5  1  0
  2 13  4  0
  2 16  4  0
  3  6  4  0
  3  7  4  0
  4 13  4  0
  4 19  4  0
  4 24  4  0
  6 23  4  0
  7 16  1  0
  7 21  4  0
  8 18  1  0
  9 20  4  0
  9 22  4  0
 10 17  1  0
 10 25  1  0
 11 16  4  0
 11 19  4  0
 12 15  4  0
 12 22  4  0
 14 24  4  0
 14 25  4  0
 15 17  4  0
 17 20  4  0
 18 23  1  0
 19 25  4  0
M  END
$$$$

 Created by Python create_sdf_string function

 25 28  0  0  0  0  0  0  0  0999 V2000
   13.1533   -5.2399   21.0682 C   0  0  0  0  0  0  0  0  0  0  0  0
   10.4729   -4.0295   17.6135 C   0  0  0  0  0  0  0  0  0  0  0  0
   10.4789   -4.3641   20.9564 C   0  0  0  0  0  0  0  0  0  0  0  0
    8.7421   -5.1412   16.3650 C   0  0  0  0  0  0  0  0  0  0  0  0
   11.4353   -2.9204   17.8044 C   0  0  0  0  0  0  0  0  0  0  0  0
   11.1529   -4.3028   22.1277 C   0  0  0  0  0  0  0  0  0  0  0  0
   11.1290   -4.8502   19.8052 C   0  0  0  0  0  0  0  0  0  0  0  0
   12.4329   -4.2159   24.4224 C   0  0  0  0  0  0  0  0  0  0  0  0
    3.4740   -9.0387   16.5022 C   0  0  0  0  0  0  0  0  0  0  0  0
    6.8384   -7.9290   17.5282 N   0  0  0  0  0  0  0  0  0  0  0  0
    9.4126   -5.9853   18.4899 C   0  0  0  0  0  0  0  0  0  0  0  0
    4.2064  -10.3242   18.3302 C   0  0  0  0  0  0  0  0  0  0  0  0
    9.6599   -4.1551   16.4796 N   0  0  0  0  0  0  0  0  0  0  0  0
    7.0644   -6.4612   15.7375 N   0  0  0  0  0  0  0  0  0  0  0  0
    5.3549   -9.6322   18.3190 C   0  0  0  0  0  0  0  0  0  0  0  0
   10.3704   -4.9638   18.6510 C   0  0  0  0  0  0  0  0  0  0  0  0
    5.5935   -8.6419   17.4234 C   0  0  0  0  0  0  0  0  0  0  0  0
   13.0726   -4.6648   23.3394 O   0  0  0  0  0  0  0  0  0  0  0  0
    8.5955   -6.0705   17.3996 C   0  0  0  0  0  0  0  0  0  0  0  0
    4.6223   -8.3832   16.5030 C   0  0  0  0  0  0  0  0  0  0  0  0
   12.4690   -5.2624   19.9024 C   0  0  0  0  0  0  0  0  0  0  0  0
    3.2548   -9.9919   17.4189 C   0  0  0  0  0  0  0  0  0  0  0  0
   12.4767   -4.7393   22.1790 C   0  0  0  0  0  0  0  0  0  0  0  0
    7.8593   -5.3772   15.3569 N   0  0  0  0  0  0  0  0  0  0  0  0
    7.4412   -6.9038   16.9283 C   0  0  0  0  0  0  0  0  0  0  0  0
  1 21  4  0
  1 23  4  0
  2  5  1  0
  2 13  4  0
  2 16  4  0
  3  6  4  0
  3  7  4  0
  4 13  4  0
  4 19  4  0
  4 24  4  0
  6 23  4  0
  7 16  1  0
  7 21  4  0
  8 18  1  0
  9 20  4  0
  9 22  4  0
 10 17  1  0
 10 25  1  0
 11 16  4  0
 11 19  4  0
 12 15  4  0
 12 22  4  0
 14 24  4  0
 14 25  4  0
 15 17  4  0
 17 20  4  0
 18 23  1  0
 19 25  4  0
M  END
$$$$

 Created by Python create_sdf_string function

 25 28  0  0  0  0  0  0  0  0999 V2000
   13.1533   -5.2399   21.0682 C   0  0  0  0  0  0  0  0  0  0  0  0
   10.4729   -4.0295   17.6135 C   0  0  0  0  0  0  0  0  0  0  0  0
   10.4789   -4.3641   20.9564 C   0  0  0  0  0  0  0  0  0  0  0  0
    8.7421   -5.1412   16.3650 C   0  0  0  0  0  0  0  0  0  0  0  0
   11.4353   -2.9204   17.8044 C   0  0  0  0  0  0  0  0  0  0  0  0
   11.1529   -4.3028   22.1277 C   0  0  0  0  0  0  0  0  0  0  0  0
   11.1290   -4.8502   19.8052 C   0  0  0  0  0  0  0  0  0  0  0  0
   12.4329   -4.2159   24.4224 C   0  0  0  0  0  0  0  0  0  0  0  0
    3.4740   -9.0387   16.5022 C   0  0  0  0  0  0  0  0  0  0  0  0
    6.8384   -7.9290   17.5282 N   0  0  0  0  0  0  0  0  0  0  0  0
    9.4126   -5.9853   18.4899 C   0  0  0  0  0  0  0  0  0  0  0  0
    4.2064  -10.3242   18.3302 C   0  0  0  0  0  0  0  0  0  0  0  0
    9.6599   -4.1551   16.4796 N   0  0  0  0  0  0  0  0  0  0  0  0
    7.0644   -6.4612   15.7375 N   0  0  0  0  0  0  0  0  0  0  0  0
    5.3549   -9.6322   18.3190 C   0  0  0  0  0  0  0  0  0  0  0  0
   10.3704   -4.9638   18.6510 C   0  0  0  0  0  0  0  0  0  0  0  0
    5.5935   -8.6419   17.4234 C   0  0  0  0  0  0  0  0  0  0  0  0
   13.0726   -4.6648   23.3394 O   0  0  0  0  0  0  0  0  0  0  0  0
    8.5955   -6.0705   17.3996 C   0  0  0  0  0  0  0  0  0  0  0  0
    4.6223   -8.3832   16.5030 C   0  0  0  0  0  0  0  0  0  0  0  0
   12.4690   -5.2624   19.9024 C   0  0  0  0  0  0  0  0  0  0  0  0
    3.2548   -9.9919   17.4189 C   0  0  0  0  0  0  0  0  0  0  0  0
   12.4767   -4.7393   22.1790 C   0  0  0  0  0  0  0  0  0  0  0  0
    7.8593   -5.3772   15.3569 N   0  0  0  0  0  0  0  0  0  0  0  0
    7.4412   -6.9038   16.9283 C   0  0  0  0  0  0  0  0  0  0  0  0
  1 21  4  0
  1 23  4  0
  2  5  1  0
  2 13  4  0
  2 16  4  0
  3  6  4  0
  3  7  4  0
  4 13  4  0
  4 19  4  0
  4 24  4  0
  6 23  4  0
  7 16  1  0
  7 21  4  0
  8 18  1  0
  9 20  4  0
  9 22  4  0
 10 17  1  0
 10 25  1  0
 11 16  4  0
 11 19  4  0
 12 15  4  0
 12 22  4  0
 14 24  4  0
 14 25  4  0
 15 17  4  0
 17 20  4  0
 18 23  1  0
 19 25  4  0
M  END
$$$$

 Created by Python create_sdf_string function

 25 28  0  0  0  0  0  0  0  0999 V2000
   13.1533   -5.2399   21.0682 C   0  0  0  0  0  0  0  0  0  0  0  0
   10.4729   -4.0295   17.6135 C   0  0  0  0  0  0  0  0  0  0  0  0
   10.4789   -4.3641   20.9564 C   0  0  0  0  0  0  0  0  0  0  0  0
    8.7421   -5.1412   16.3650 C   0  0  0  0  0  0  0  0  0  0  0  0
   11.4353   -2.9204   17.8044 C   0  0  0  0  0  0  0  0  0  0  0  0
   11.1529   -4.3028   22.1277 C   0  0  0  0  0  0  0  0  0  0  0  0
   11.1290   -4.8502   19.8052 C   0  0  0  0  0  0  0  0  0  0  0  0
   12.4329   -4.2159   24.4224 C   0  0  0  0  0  0  0  0  0  0  0  0
    3.4740   -9.0387   16.5022 C   0  0  0  0  0  0  0  0  0  0  0  0
    6.8384   -7.9290   17.5282 N   0  0  0  0  0  0  0  0  0  0  0  0
    9.4126   -5.9853   18.4899 C   0  0  0  0  0  0  0  0  0  0  0  0
    4.2064  -10.3242   18.3302 C   0  0  0  0  0  0  0  0  0  0  0  0
    9.6599   -4.1551   16.4796 N   0  0  0  0  0  0  0  0  0  0  0  0
    7.0644   -6.4612   15.7375 N   0  0  0  0  0  0  0  0  0  0  0  0
    5.3549   -9.6322   18.3190 C   0  0  0  0  0  0  0  0  0  0  0  0
   10.3704   -4.9638   18.6510 C   0  0  0  0  0  0  0  0  0  0  0  0
    5.5935   -8.6419   17.4234 C   0  0  0  0  0  0  0  0  0  0  0  0
   13.0726   -4.6648   23.3394 O   0  0  0  0  0  0  0  0  0  0  0  0
    8.5955   -6.0705   17.3996 C   0  0  0  0  0  0  0  0  0  0  0  0
    4.6223   -8.3832   16.5030 C   0  0  0  0  0  0  0  0  0  0  0  0
   12.4690   -5.2624   19.9024 C   0  0  0  0  0  0  0  0  0  0  0  0
    3.2548   -9.9919   17.4189 C   0  0  0  0  0  0  0  0  0  0  0  0
   12.4767   -4.7393   22.1790 C   0  0  0  0  0  0  0  0  0  0  0  0
    7.8593   -5.3772   15.3569 N   0  0  0  0  0  0  0  0  0  0  0  0
    7.4412   -6.9038   16.9283 C   0  0  0  0  0  0  0  0  0  0  0  0
  1 21  4  0
  1 23  4  0
  2  5  1  0
  2 13  4  0
  2 16  4  0
  3  6  4  0
  3  7  4  0
  4 13  4  0
  4 19  4  0
  4 24  4  0
  6 23  4  0
  7 16  1  0
  7 21  4  0
  8 18  1  0
  9 20  4  0
  9 22  4  0
 10 17  1  0
 10 25  1  0
 11 16  4  0
 11 19  4  0
 12 15  4  0
 12 22  4  0
 14 24  4  0
 14 25  4  0
 15 17  4  0
 17 20  4  0
 18 23  1  0
 19 25  4  0
M  END
$$$$

 Created by Python create_sdf_string function

 25 28  0  0  0  0  0  0  0  0999 V2000
   13.1533   -5.2399   21.0682 C   0  0  0  0  0  0  0  0  0  0  0  0
   10.4729   -4.0295   17.6135 C   0  0  0  0  0  0  0  0  0  0  0  0
   10.4789   -4.3641   20.9564 C   0  0  0  0  0  0  0  0  0  0  0  0
    8.7421   -5.1412   16.3650 C   0  0  0  0  0  0  0  0  0  0  0  0
   11.4353   -2.9204   17.8044 C   0  0  0  0  0  0  0  0  0  0  0  0
   11.1529   -4.3028   22.1277 C   0  0  0  0  0  0  0  0  0  0  0  0
   11.1290   -4.8502   19.8052 C   0  0  0  0  0  0  0  0  0  0  0  0
   12.4329   -4.2159   24.4224 C   0  0  0  0  0  0  0  0  0  0  0  0
    3.4740   -9.0387   16.5022 C   0  0  0  0  0  0  0  0  0  0  0  0
    6.8384   -7.9290   17.5282 N   0  0  0  0  0  0  0  0  0  0  0  0
    9.4126   -5.9853   18.4899 C   0  0  0  0  0  0  0  0  0  0  0  0
    4.2064  -10.3242   18.3302 C   0  0  0  0  0  0  0  0  0  0  0  0
    9.6599   -4.1551   16.4796 N   0  0  0  0  0  0  0  0  0  0  0  0
    7.0644   -6.4612   15.7375 N   0  0  0  0  0  0  0  0  0  0  0  0
    5.3549   -9.6322   18.3190 C   0  0  0  0  0  0  0  0  0  0  0  0
   10.3704   -4.9638   18.6510 C   0  0  0  0  0  0  0  0  0  0  0  0
    5.5935   -8.6419   17.4234 C   0  0  0  0  0  0  0  0  0  0  0  0
   13.0726   -4.6648   23.3394 O   0  0  0  0  0  0  0  0  0  0  0  0
    8.5955   -6.0705   17.3996 C   0  0  0  0  0  0  0  0  0  0  0  0
    4.6223   -8.3832   16.5030 C   0  0  0  0  0  0  0  0  0  0  0  0
   12.4690   -5.2624   19.9024 C   0  0  0  0  0  0  0  0  0  0  0  0
    3.2548   -9.9919   17.4189 C   0  0  0  0  0  0  0  0  0  0  0  0
   12.4767   -4.7393   22.1790 C   0  0  0  0  0  0  0  0  0  0  0  0
    7.8593   -5.3772   15.3569 N   0  0  0  0  0  0  0  0  0  0  0  0
    7.4412   -6.9038   16.9283 C   0  0  0  0  0  0  0  0  0  0  0  0
  1 21  4  0
  1 23  4  0
  2  5  1  0
  2 13  4  0
  2 16  4  0
  3  6  4  0
  3  7  4  0
  4 13  4  0
  4 19  4  0
  4 24  4  0
  6 23  4  0
  7 16  1  0
  7 21  4  0
  8 18  1  0
  9 20  4  0
  9 22  4  0
 10 17  1  0
 10 25  1  0
 11 16  4  0
 11 19  4  0
 12 15  4  0
 12 22  4  0
 14 24  4  0
 14 25  4  0
 15 17  4  0
 17 20  4  0
 18 23  1  0
 19 25  4  0
M  END
$$$$

 Created by Python create_sdf_string function

 25 28  0  0  0  0  0  0  0  0999 V2000
   13.1533   -5.2399   21.0682 C   0  0  0  0  0  0  0  0  0  0  0  0
   10.4729   -4.0295   17.6135 C   0  0  0  0  0  0  0  0  0  0  0  0
   10.4789   -4.3641   20.9564 C   0  0  0  0  0  0  0  0  0  0  0  0
    8.7421   -5.1412   16.3650 C   0  0  0  0  0  0  0  0  0  0  0  0
   11.4353   -2.9204   17.8044 C   0  0  0  0  0  0  0  0  0  0  0  0
   11.1529   -4.3028   22.1277 C   0  0  0  0  0  0  0  0  0  0  0  0
   11.1290   -4.8502   19.8052 C   0  0  0  0  0  0  0  0  0  0  0  0
   12.4329   -4.2159   24.4224 C   0  0  0  0  0  0  0  0  0  0  0  0
    3.4740   -9.0387   16.5022 C   0  0  0  0  0  0  0  0  0  0  0  0
    6.8384   -7.9290   17.5282 N   0  0  0  0  0  0  0  0  0  0  0  0
    9.4126   -5.9853   18.4899 C   0  0  0  0  0  0  0  0  0  0  0  0
    4.2064  -10.3242   18.3302 C   0  0  0  0  0  0  0  0  0  0  0  0
    9.6599   -4.1551   16.4796 N   0  0  0  0  0  0  0  0  0  0  0  0
    7.0644   -6.4612   15.7375 N   0  0  0  0  0  0  0  0  0  0  0  0
    5.3549   -9.6322   18.3190 C   0  0  0  0  0  0  0  0  0  0  0  0
   10.3704   -4.9638   18.6510 C   0  0  0  0  0  0  0  0  0  0  0  0
    5.5935   -8.6419   17.4234 C   0  0  0  0  0  0  0  0  0  0  0  0
   13.0726   -4.6648   23.3394 O   0  0  0  0  0  0  0  0  0  0  0  0
    8.5955   -6.0705   17.3996 C   0  0  0  0  0  0  0  0  0  0  0  0
    4.6223   -8.3832   16.5030 C   0  0  0  0  0  0  0  0  0  0  0  0
   12.4690   -5.2624   19.9024 C   0  0  0  0  0  0  0  0  0  0  0  0
    3.2548   -9.9919   17.4189 C   0  0  0  0  0  0  0  0  0  0  0  0
   12.4767   -4.7393   22.1790 C   0  0  0  0  0  0  0  0  0  0  0  0
    7.8593   -5.3772   15.3569 N   0  0  0  0  0  0  0  0  0  0  0  0
    7.4412   -6.9038   16.9283 C   0  0  0  0  0  0  0  0  0  0  0  0
  1 21  4  0
  1 23  4  0
  2  5  1  0
  2 13  4  0
  2 16  4  0
  3  6  4  0
  3  7  4  0
  4 13  4  0
  4 19  4  0
  4 24  4  0
  6 23  4  0
  7 16  1  0
  7 21  4  0
  8 18  1  0
  9 20  4  0
  9 22  4  0
 10 17  1  0
 10 25  1  0
 11 16  4  0
 11 19  4  0
 12 15  4  0
 12 22  4  0
 14 24  4  0
 14 25  4  0
 15 17  4  0
 17 20  4  0
 18 23  1  0
 19 25  4  0
M  END
$$$$

 Created by Python create_sdf_string function

 25 28  0  0  0  0  0  0  0  0999 V2000
   13.1533   -5.2399   21.0682 C   0  0  0  0  0  0  0  0  0  0  0  0
   10.4729   -4.0295   17.6135 C   0  0  0  0  0  0  0  0  0  0  0  0
   10.4789   -4.3641   20.9564 C   0  0  0  0  0  0  0  0  0  0  0  0
    8.7421   -5.1412   16.3650 C   0  0  0  0  0  0  0  0  0  0  0  0
   11.4353   -2.9204   17.8044 C   0  0  0  0  0  0  0  0  0  0  0  0
   11.1529   -4.3028   22.1277 C   0  0  0  0  0  0  0  0  0  0  0  0
   11.1290   -4.8502   19.8052 C   0  0  0  0  0  0  0  0  0  0  0  0
   12.4329   -4.2159   24.4224 C   0  0  0  0  0  0  0  0  0  0  0  0
    3.4740   -9.0387   16.5022 C   0  0  0  0  0  0  0  0  0  0  0  0
    6.8384   -7.9290   17.5282 N   0  0  0  0  0  0  0  0  0  0  0  0
    9.4126   -5.9853   18.4899 C   0  0  0  0  0  0  0  0  0  0  0  0
    4.2064  -10.3242   18.3302 C   0  0  0  0  0  0  0  0  0  0  0  0
    9.6599   -4.1551   16.4796 N   0  0  0  0  0  0  0  0  0  0  0  0
    7.0644   -6.4612   15.7375 N   0  0  0  0  0  0  0  0  0  0  0  0
    5.3549   -9.6322   18.3190 C   0  0  0  0  0  0  0  0  0  0  0  0
   10.3704   -4.9638   18.6510 C   0  0  0  0  0  0  0  0  0  0  0  0
    5.5935   -8.6419   17.4234 C   0  0  0  0  0  0  0  0  0  0  0  0
   13.0726   -4.6648   23.3394 O   0  0  0  0  0  0  0  0  0  0  0  0
    8.5955   -6.0705   17.3996 C   0  0  0  0  0  0  0  0  0  0  0  0
    4.6223   -8.3832   16.5030 C   0  0  0  0  0  0  0  0  0  0  0  0
   12.4690   -5.2624   19.9024 C   0  0  0  0  0  0  0  0  0  0  0  0
    3.2548   -9.9919   17.4189 C   0  0  0  0  0  0  0  0  0  0  0  0
   12.4767   -4.7393   22.1790 C   0  0  0  0  0  0  0  0  0  0  0  0
    7.8593   -5.3772   15.3569 N   0  0  0  0  0  0  0  0  0  0  0  0
    7.4412   -6.9038   16.9283 C   0  0  0  0  0  0  0  0  0  0  0  0
  1 21  4  0
  1 23  4  0
  2  5  1  0
  2 13  4  0
  2 16  4  0
  3  6  4  0
  3  7  4  0
  4 13  4  0
  4 19  4  0
  4 24  4  0
  6 23  4  0
  7 16  1  0
  7 21  4  0
  8 18  1  0
  9 20  4  0
  9 22  4  0
 10 17  1  0
 10 25  1  0
 11 16  4  0
 11 19  4  0
 12 15  4  0
 12 22  4  0
 14 24  4  0
 14 25  4  0
 15 17  4  0
 17 20  4  0
 18 23  1  0
 19 25  4  0
M  END
$$$$

 Created by Python create_sdf_string function

 25 28  0  0  0  0  0  0  0  0999 V2000
   13.1533   -5.2399   21.0682 C   0  0  0  0  0  0  0  0  0  0  0  0
   10.4729   -4.0295   17.6135 C   0  0  0  0  0  0  0  0  0  0  0  0
   10.4789   -4.3641   20.9564 C   0  0  0  0  0  0  0  0  0  0  0  0
    8.7421   -5.1412   16.3650 C   0  0  0  0  0  0  0  0  0  0  0  0
   11.4353   -2.9204   17.8044 C   0  0  0  0  0  0  0  0  0  0  0  0
   11.1529   -4.3028   22.1277 C   0  0  0  0  0  0  0  0  0  0  0  0
   11.1290   -4.8502   19.8052 C   0  0  0  0  0  0  0  0  0  0  0  0
   12.4329   -4.2159   24.4224 C   0  0  0  0  0  0  0  0  0  0  0  0
    3.4740   -9.0387   16.5022 C   0  0  0  0  0  0  0  0  0  0  0  0
    6.8384   -7.9290   17.5282 N   0  0  0  0  0  0  0  0  0  0  0  0
    9.4126   -5.9853   18.4899 C   0  0  0  0  0  0  0  0  0  0  0  0
    4.2064  -10.3242   18.3302 C   0  0  0  0  0  0  0  0  0  0  0  0
    9.6599   -4.1551   16.4796 N   0  0  0  0  0  0  0  0  0  0  0  0
    7.0644   -6.4612   15.7375 N   0  0  0  0  0  0  0  0  0  0  0  0
    5.3549   -9.6322   18.3190 C   0  0  0  0  0  0  0  0  0  0  0  0
   10.3704   -4.9638   18.6510 C   0  0  0  0  0  0  0  0  0  0  0  0
    5.5935   -8.6419   17.4234 C   0  0  0  0  0  0  0  0  0  0  0  0
   13.0726   -4.6648   23.3394 O   0  0  0  0  0  0  0  0  0  0  0  0
    8.5955   -6.0705   17.3996 C   0  0  0  0  0  0  0  0  0  0  0  0
    4.6223   -8.3832   16.5030 C   0  0  0  0  0  0  0  0  0  0  0  0
   12.4690   -5.2624   19.9024 C   0  0  0  0  0  0  0  0  0  0  0  0
    3.2548   -9.9919   17.4189 C   0  0  0  0  0  0  0  0  0  0  0  0
   12.4767   -4.7393   22.1790 C   0  0  0  0  0  0  0  0  0  0  0  0
    7.8593   -5.3772   15.3569 N   0  0  0  0  0  0  0  0  0  0  0  0
    7.4412   -6.9038   16.9283 C   0  0  0  0  0  0  0  0  0  0  0  0
  1 21  4  0
  1 23  4  0
  2  5  1  0
  2 13  4  0
  2 16  4  0
  3  6  4  0
  3  7  4  0
  4 13  4  0
  4 19  4  0
  4 24  4  0
  6 23  4  0
  7 16  1  0
  7 21  4  0
  8 18  1  0
  9 20  4  0
  9 22  4  0
 10 17  1  0
 10 25  1  0
 11 16  4  0
 11 19  4  0
 12 15  4  0
 12 22  4  0
 14 24  4  0
 14 25  4  0
 15 17  4  0
 17 20  4  0
 18 23  1  0
 19 25  4  0
M  END
$$$$

 Created by Python create_sdf_string function

 25 28  0  0  0  0  0  0  0  0999 V2000
   13.1533   -5.2399   21.0682 C   0  0  0  0  0  0  0  0  0  0  0  0
   10.4729   -4.0295   17.6135 C   0  0  0  0  0  0  0  0  0  0  0  0
   10.4789   -4.3641   20.9564 C   0  0  0  0  0  0  0  0  0  0  0  0
    8.7421   -5.1412   16.3650 C   0  0  0  0  0  0  0  0  0  0  0  0
   11.4353   -2.9204   17.8044 C   0  0  0  0  0  0  0  0  0  0  0  0
   11.1529   -4.3028   22.1277 C   0  0  0  0  0  0  0  0  0  0  0  0
   11.1290   -4.8502   19.8052 C   0  0  0  0  0  0  0  0  0  0  0  0
   12.4329   -4.2159   24.4224 C   0  0  0  0  0  0  0  0  0  0  0  0
    3.4740   -9.0387   16.5022 C   0  0  0  0  0  0  0  0  0  0  0  0
    6.8384   -7.9290   17.5282 N   0  0  0  0  0  0  0  0  0  0  0  0
    9.4126   -5.9853   18.4899 C   0  0  0  0  0  0  0  0  0  0  0  0
    4.2064  -10.3242   18.3302 C   0  0  0  0  0  0  0  0  0  0  0  0
    9.6599   -4.1551   16.4796 N   0  0  0  0  0  0  0  0  0  0  0  0
    7.0644   -6.4612   15.7375 N   0  0  0  0  0  0  0  0  0  0  0  0
    5.3549   -9.6322   18.3190 C   0  0  0  0  0  0  0  0  0  0  0  0
   10.3704   -4.9638   18.6510 C   0  0  0  0  0  0  0  0  0  0  0  0
    5.5935   -8.6419   17.4234 C   0  0  0  0  0  0  0  0  0  0  0  0
   13.0726   -4.6648   23.3394 O   0  0  0  0  0  0  0  0  0  0  0  0
    8.5955   -6.0705   17.3996 C   0  0  0  0  0  0  0  0  0  0  0  0
    4.6223   -8.3832   16.5030 C   0  0  0  0  0  0  0  0  0  0  0  0
   12.4690   -5.2624   19.9024 C   0  0  0  0  0  0  0  0  0  0  0  0
    3.2548   -9.9919   17.4189 C   0  0  0  0  0  0  0  0  0  0  0  0
   12.4767   -4.7393   22.1790 C   0  0  0  0  0  0  0  0  0  0  0  0
    7.8593   -5.3772   15.3569 N   0  0  0  0  0  0  0  0  0  0  0  0
    7.4412   -6.9038   16.9283 C   0  0  0  0  0  0  0  0  0  0  0  0
  1 21  4  0
  1 23  4  0
  2  5  1  0
  2 13  4  0
  2 16  4  0
  3  6  4  0
  3  7  4  0
  4 13  4  0
  4 19  4  0
  4 24  4  0
  6 23  4  0
  7 16  1  0
  7 21  4  0
  8 18  1  0
  9 20  4  0
  9 22  4  0
 10 17  1  0
 10 25  1  0
 11 16  4  0
 11 19  4  0
 12 15  4  0
 12 22  4  0
 14 24  4  0
 14 25  4  0
 15 17  4  0
 17 20  4  0
 18 23  1  0
 19 25  4  0
M  END
$$$$

 Created by Python create_sdf_string function

 25 28  0  0  0  0  0  0  0  0999 V2000
   13.1533   -5.2399   21.0682 C   0  0  0  0  0  0  0  0  0  0  0  0
   10.4729   -4.0295   17.6135 C   0  0  0  0  0  0  0  0  0  0  0  0
   10.4789   -4.3641   20.9564 C   0  0  0  0  0  0  0  0  0  0  0  0
    8.7421   -5.1412   16.3650 C   0  0  0  0  0  0  0  0  0  0  0  0
   11.4353   -2.9204   17.8044 C   0  0  0  0  0  0  0  0  0  0  0  0
   11.1529   -4.3028   22.1277 C   0  0  0  0  0  0  0  0  0  0  0  0
   11.1290   -4.8502   19.8052 C   0  0  0  0  0  0  0  0  0  0  0  0
   12.4329   -4.2159   24.4224 C   0  0  0  0  0  0  0  0  0  0  0  0
    3.4740   -9.0387   16.5022 C   0  0  0  0  0  0  0  0  0  0  0  0
    6.8384   -7.9290   17.5282 N   0  0  0  0  0  0  0  0  0  0  0  0
    9.4126   -5.9853   18.4899 C   0  0  0  0  0  0  0  0  0  0  0  0
    4.2064  -10.3242   18.3302 C   0  0  0  0  0  0  0  0  0  0  0  0
    9.6599   -4.1551   16.4796 N   0  0  0  0  0  0  0  0  0  0  0  0
    7.0644   -6.4612   15.7375 N   0  0  0  0  0  0  0  0  0  0  0  0
    5.3549   -9.6322   18.3190 C   0  0  0  0  0  0  0  0  0  0  0  0
   10.3704   -4.9638   18.6510 C   0  0  0  0  0  0  0  0  0  0  0  0
    5.5935   -8.6419   17.4234 C   0  0  0  0  0  0  0  0  0  0  0  0
   13.0726   -4.6648   23.3394 O   0  0  0  0  0  0  0  0  0  0  0  0
    8.5955   -6.0705   17.3996 C   0  0  0  0  0  0  0  0  0  0  0  0
    4.6223   -8.3832   16.5030 C   0  0  0  0  0  0  0  0  0  0  0  0
   12.4690   -5.2624   19.9024 C   0  0  0  0  0  0  0  0  0  0  0  0
    3.2548   -9.9919   17.4189 C   0  0  0  0  0  0  0  0  0  0  0  0
   12.4767   -4.7393   22.1790 C   0  0  0  0  0  0  0  0  0  0  0  0
    7.8593   -5.3772   15.3569 N   0  0  0  0  0  0  0  0  0  0  0  0
    7.4412   -6.9038   16.9283 C   0  0  0  0  0  0  0  0  0  0  0  0
  1 21  4  0
  1 23  4  0
  2  5  1  0
  2 13  4  0
  2 16  4  0
  3  6  4  0
  3  7  4  0
  4 13  4  0
  4 19  4  0
  4 24  4  0
  6 23  4  0
  7 16  1  0
  7 21  4  0
  8 18  1  0
  9 20  4  0
  9 22  4  0
 10 17  1  0
 10 25  1  0
 11 16  4  0
 11 19  4  0
 12 15  4  0
 12 22  4  0
 14 24  4  0
 14 25  4  0
 15 17  4  0
 17 20  4  0
 18 23  1  0
 19 25  4  0
M  END
$$$$

 Created by Python create_sdf_string function

 25 28  0  0  0  0  0  0  0  0999 V2000
   13.1533   -5.2399   21.0682 C   0  0  0  0  0  0  0  0  0  0  0  0
   10.4729   -4.0295   17.6135 C   0  0  0  0  0  0  0  0  0  0  0  0
   10.4789   -4.3641   20.9564 C   0  0  0  0  0  0  0  0  0  0  0  0
    8.7421   -5.1412   16.3650 C   0  0  0  0  0  0  0  0  0  0  0  0
   11.4353   -2.9204   17.8044 C   0  0  0  0  0  0  0  0  0  0  0  0
   11.1529   -4.3028   22.1277 C   0  0  0  0  0  0  0  0  0  0  0  0
   11.1290   -4.8502   19.8052 C   0  0  0  0  0  0  0  0  0  0  0  0
   12.4329   -4.2159   24.4224 C   0  0  0  0  0  0  0  0  0  0  0  0
    3.4740   -9.0387   16.5022 C   0  0  0  0  0  0  0  0  0  0  0  0
    6.8384   -7.9290   17.5282 N   0  0  0  0  0  0  0  0  0  0  0  0
    9.4126   -5.9853   18.4899 C   0  0  0  0  0  0  0  0  0  0  0  0
    4.2064  -10.3242   18.3302 C   0  0  0  0  0  0  0  0  0  0  0  0
    9.6599   -4.1551   16.4796 N   0  0  0  0  0  0  0  0  0  0  0  0
    7.0644   -6.4612   15.7375 N   0  0  0  0  0  0  0  0  0  0  0  0
    5.3549   -9.6322   18.3190 C   0  0  0  0  0  0  0  0  0  0  0  0
   10.3704   -4.9638   18.6510 C   0  0  0  0  0  0  0  0  0  0  0  0
    5.5935   -8.6419   17.4234 C   0  0  0  0  0  0  0  0  0  0  0  0
   13.0726   -4.6648   23.3394 O   0  0  0  0  0  0  0  0  0  0  0  0
    8.5955   -6.0705   17.3996 C   0  0  0  0  0  0  0  0  0  0  0  0
    4.6223   -8.3832   16.5030 C   0  0  0  0  0  0  0  0  0  0  0  0
   12.4690   -5.2624   19.9024 C   0  0  0  0  0  0  0  0  0  0  0  0
    3.2548   -9.9919   17.4189 C   0  0  0  0  0  0  0  0  0  0  0  0
   12.4767   -4.7393   22.1790 C   0  0  0  0  0  0  0  0  0  0  0  0
    7.8593   -5.3772   15.3569 N   0  0  0  0  0  0  0  0  0  0  0  0
    7.4412   -6.9038   16.9283 C   0  0  0  0  0  0  0  0  0  0  0  0
  1 21  4  0
  1 23  4  0
  2  5  1  0
  2 13  4  0
  2 16  4  0
  3  6  4  0
  3  7  4  0
  4 13  4  0
  4 19  4  0
  4 24  4  0
  6 23  4  0
  7 16  1  0
  7 21  4  0
  8 18  1  0
  9 20  4  0
  9 22  4  0
 10 17  1  0
 10 25  1  0
 11 16  4  0
 11 19  4  0
 12 15  4  0
 12 22  4  0
 14 24  4  0
 14 25  4  0
 15 17  4  0
 17 20  4  0
 18 23  1  0
 19 25  4  0
M  END
$$$$

 Created by Python create_sdf_string function

 25 28  0  0  0  0  0  0  0  0999 V2000
   13.1533   -5.2399   21.0682 C   0  0  0  0  0  0  0  0  0  0  0  0
   10.4729   -4.0295   17.6135 C   0  0  0  0  0  0  0  0  0  0  0  0
   10.4789   -4.3641   20.9564 C   0  0  0  0  0  0  0  0  0  0  0  0
    8.7421   -5.1412   16.3650 C   0  0  0  0  0  0  0  0  0  0  0  0
   11.4353   -2.9204   17.8044 C   0  0  0  0  0  0  0  0  0  0  0  0
   11.1529   -4.3028   22.1277 C   0  0  0  0  0  0  0  0  0  0  0  0
   11.1290   -4.8502   19.8052 C   0  0  0  0  0  0  0  0  0  0  0  0
   12.4329   -4.2159   24.4224 C   0  0  0  0  0  0  0  0  0  0  0  0
    3.4740   -9.0387   16.5022 C   0  0  0  0  0  0  0  0  0  0  0  0
    6.8384   -7.9290   17.5282 N   0  0  0  0  0  0  0  0  0  0  0  0
    9.4126   -5.9853   18.4899 C   0  0  0  0  0  0  0  0  0  0  0  0
    4.2064  -10.3242   18.3302 C   0  0  0  0  0  0  0  0  0  0  0  0
    9.6599   -4.1551   16.4796 N   0  0  0  0  0  0  0  0  0  0  0  0
    7.0644   -6.4612   15.7375 N   0  0  0  0  0  0  0  0  0  0  0  0
    5.3549   -9.6322   18.3190 C   0  0  0  0  0  0  0  0  0  0  0  0
   10.3704   -4.9638   18.6510 C   0  0  0  0  0  0  0  0  0  0  0  0
    5.5935   -8.6419   17.4234 C   0  0  0  0  0  0  0  0  0  0  0  0
   13.0726   -4.6648   23.3394 O   0  0  0  0  0  0  0  0  0  0  0  0
    8.5955   -6.0705   17.3996 C   0  0  0  0  0  0  0  0  0  0  0  0
    4.6223   -8.3832   16.5030 C   0  0  0  0  0  0  0  0  0  0  0  0
   12.4690   -5.2624   19.9024 C   0  0  0  0  0  0  0  0  0  0  0  0
    3.2548   -9.9919   17.4189 C   0  0  0  0  0  0  0  0  0  0  0  0
   12.4767   -4.7393   22.1790 C   0  0  0  0  0  0  0  0  0  0  0  0
    7.8593   -5.3772   15.3569 N   0  0  0  0  0  0  0  0  0  0  0  0
    7.4412   -6.9038   16.9283 C   0  0  0  0  0  0  0  0  0  0  0  0
  1 21  4  0
  1 23  4  0
  2  5  1  0
  2 13  4  0
  2 16  4  0
  3  6  4  0
  3  7  4  0
  4 13  4  0
  4 19  4  0
  4 24  4  0
  6 23  4  0
  7 16  1  0
  7 21  4  0
  8 18  1  0
  9 20  4  0
  9 22  4  0
 10 17  1  0
 10 25  1  0
 11 16  4  0
 11 19  4  0
 12 15  4  0
 12 22  4  0
 14 24  4  0
 14 25  4  0
 15 17  4  0
 17 20  4  0
 18 23  1  0
 19 25  4  0
M  END
$$$$

 Created by Python create_sdf_string function

 25 28  0  0  0  0  0  0  0  0999 V2000
   13.1533   -5.2399   21.0682 C   0  0  0  0  0  0  0  0  0  0  0  0
   10.4729   -4.0295   17.6135 C   0  0  0  0  0  0  0  0  0  0  0  0
   10.4789   -4.3641   20.9564 C   0  0  0  0  0  0  0  0  0  0  0  0
    8.7421   -5.1412   16.3650 C   0  0  0  0  0  0  0  0  0  0  0  0
   11.4353   -2.9204   17.8044 C   0  0  0  0  0  0  0  0  0  0  0  0
   11.1529   -4.3028   22.1277 C   0  0  0  0  0  0  0  0  0  0  0  0
   11.1290   -4.8502   19.8052 C   0  0  0  0  0  0  0  0  0  0  0  0
   12.4329   -4.2159   24.4224 C   0  0  0  0  0  0  0  0  0  0  0  0
    3.4740   -9.0387   16.5022 C   0  0  0  0  0  0  0  0  0  0  0  0
    6.8384   -7.9290   17.5282 N   0  0  0  0  0  0  0  0  0  0  0  0
    9.4126   -5.9853   18.4899 C   0  0  0  0  0  0  0  0  0  0  0  0
    4.2064  -10.3242   18.3302 C   0  0  0  0  0  0  0  0  0  0  0  0
    9.6599   -4.1551   16.4796 N   0  0  0  0  0  0  0  0  0  0  0  0
    7.0644   -6.4612   15.7375 N   0  0  0  0  0  0  0  0  0  0  0  0
    5.3549   -9.6322   18.3190 C   0  0  0  0  0  0  0  0  0  0  0  0
   10.3704   -4.9638   18.6510 C   0  0  0  0  0  0  0  0  0  0  0  0
    5.5935   -8.6419   17.4234 C   0  0  0  0  0  0  0  0  0  0  0  0
   13.0726   -4.6648   23.3394 O   0  0  0  0  0  0  0  0  0  0  0  0
    8.5955   -6.0705   17.3996 C   0  0  0  0  0  0  0  0  0  0  0  0
    4.6223   -8.3832   16.5030 C   0  0  0  0  0  0  0  0  0  0  0  0
   12.4690   -5.2624   19.9024 C   0  0  0  0  0  0  0  0  0  0  0  0
    3.2548   -9.9919   17.4189 C   0  0  0  0  0  0  0  0  0  0  0  0
   12.4767   -4.7393   22.1790 C   0  0  0  0  0  0  0  0  0  0  0  0
    7.8593   -5.3772   15.3569 N   0  0  0  0  0  0  0  0  0  0  0  0
    7.4412   -6.9038   16.9283 C   0  0  0  0  0  0  0  0  0  0  0  0
  1 21  4  0
  1 23  4  0
  2  5  1  0
  2 13  4  0
  2 16  4  0
  3  6  4  0
  3  7  4  0
  4 13  4  0
  4 19  4  0
  4 24  4  0
  6 23  4  0
  7 16  1  0
  7 21  4  0
  8 18  1  0
  9 20  4  0
  9 22  4  0
 10 17  1  0
 10 25  1  0
 11 16  4  0
 11 19  4  0
 12 15  4  0
 12 22  4  0
 14 24  4  0
 14 25  4  0
 15 17  4  0
 17 20  4  0
 18 23  1  0
 19 25  4  0
M  END
$$$$

 Created by Python create_sdf_string function

 25 28  0  0  0  0  0  0  0  0999 V2000
   13.1533   -5.2399   21.0682 C   0  0  0  0  0  0  0  0  0  0  0  0
   10.4729   -4.0295   17.6135 C   0  0  0  0  0  0  0  0  0  0  0  0
   10.4789   -4.3641   20.9564 C   0  0  0  0  0  0  0  0  0  0  0  0
    8.7421   -5.1412   16.3650 C   0  0  0  0  0  0  0  0  0  0  0  0
   11.4353   -2.9204   17.8044 C   0  0  0  0  0  0  0  0  0  0  0  0
   11.1529   -4.3028   22.1277 C   0  0  0  0  0  0  0  0  0  0  0  0
   11.1290   -4.8502   19.8052 C   0  0  0  0  0  0  0  0  0  0  0  0
   12.4329   -4.2159   24.4224 C   0  0  0  0  0  0  0  0  0  0  0  0
    3.4740   -9.0387   16.5022 C   0  0  0  0  0  0  0  0  0  0  0  0
    6.8384   -7.9290   17.5282 N   0  0  0  0  0  0  0  0  0  0  0  0
    9.4126   -5.9853   18.4899 C   0  0  0  0  0  0  0  0  0  0  0  0
    4.2064  -10.3242   18.3302 C   0  0  0  0  0  0  0  0  0  0  0  0
    9.6599   -4.1551   16.4796 N   0  0  0  0  0  0  0  0  0  0  0  0
    7.0644   -6.4612   15.7375 N   0  0  0  0  0  0  0  0  0  0  0  0
    5.3549   -9.6322   18.3190 C   0  0  0  0  0  0  0  0  0  0  0  0
   10.3704   -4.9638   18.6510 C   0  0  0  0  0  0  0  0  0  0  0  0
    5.5935   -8.6419   17.4234 C   0  0  0  0  0  0  0  0  0  0  0  0
   13.0726   -4.6648   23.3394 O   0  0  0  0  0  0  0  0  0  0  0  0
    8.5955   -6.0705   17.3996 C   0  0  0  0  0  0  0  0  0  0  0  0
    4.6223   -8.3832   16.5030 C   0  0  0  0  0  0  0  0  0  0  0  0
   12.4690   -5.2624   19.9024 C   0  0  0  0  0  0  0  0  0  0  0  0
    3.2548   -9.9919   17.4189 C   0  0  0  0  0  0  0  0  0  0  0  0
   12.4767   -4.7393   22.1790 C   0  0  0  0  0  0  0  0  0  0  0  0
    7.8593   -5.3772   15.3569 N   0  0  0  0  0  0  0  0  0  0  0  0
    7.4412   -6.9038   16.9283 C   0  0  0  0  0  0  0  0  0  0  0  0
  1 21  4  0
  1 23  4  0
  2  5  1  0
  2 13  4  0
  2 16  4  0
  3  6  4  0
  3  7  4  0
  4 13  4  0
  4 19  4  0
  4 24  4  0
  6 23  4  0
  7 16  1  0
  7 21  4  0
  8 18  1  0
  9 20  4  0
  9 22  4  0
 10 17  1  0
 10 25  1  0
 11 16  4  0
 11 19  4  0
 12 15  4  0
 12 22  4  0
 14 24  4  0
 14 25  4  0
 15 17  4  0
 17 20  4  0
 18 23  1  0
 19 25  4  0
M  END
$$$$

 Created by Python create_sdf_string function

 25 28  0  0  0  0  0  0  0  0999 V2000
   13.1533   -5.2399   21.0682 C   0  0  0  0  0  0  0  0  0  0  0  0
   10.4729   -4.0295   17.6135 C   0  0  0  0  0  0  0  0  0  0  0  0
   10.4789   -4.3641   20.9564 C   0  0  0  0  0  0  0  0  0  0  0  0
    8.7421   -5.1412   16.3650 C   0  0  0  0  0  0  0  0  0  0  0  0
   11.4353   -2.9204   17.8044 C   0  0  0  0  0  0  0  0  0  0  0  0
   11.1529   -4.3028   22.1277 C   0  0  0  0  0  0  0  0  0  0  0  0
   11.1290   -4.8502   19.8052 C   0  0  0  0  0  0  0  0  0  0  0  0
   12.4329   -4.2159   24.4224 C   0  0  0  0  0  0  0  0  0  0  0  0
    3.4740   -9.0387   16.5022 C   0  0  0  0  0  0  0  0  0  0  0  0
    6.8384   -7.9290   17.5282 N   0  0  0  0  0  0  0  0  0  0  0  0
    9.4126   -5.9853   18.4899 C   0  0  0  0  0  0  0  0  0  0  0  0
    4.2064  -10.3242   18.3302 C   0  0  0  0  0  0  0  0  0  0  0  0
    9.6599   -4.1551   16.4796 N   0  0  0  0  0  0  0  0  0  0  0  0
    7.0644   -6.4612   15.7375 N   0  0  0  0  0  0  0  0  0  0  0  0
    5.3549   -9.6322   18.3190 C   0  0  0  0  0  0  0  0  0  0  0  0
   10.3704   -4.9638   18.6510 C   0  0  0  0  0  0  0  0  0  0  0  0
    5.5935   -8.6419   17.4234 C   0  0  0  0  0  0  0  0  0  0  0  0
   13.0726   -4.6648   23.3394 O   0  0  0  0  0  0  0  0  0  0  0  0
    8.5955   -6.0705   17.3996 C   0  0  0  0  0  0  0  0  0  0  0  0
    4.6223   -8.3832   16.5030 C   0  0  0  0  0  0  0  0  0  0  0  0
   12.4690   -5.2624   19.9024 C   0  0  0  0  0  0  0  0  0  0  0  0
    3.2548   -9.9919   17.4189 C   0  0  0  0  0  0  0  0  0  0  0  0
   12.4767   -4.7393   22.1790 C   0  0  0  0  0  0  0  0  0  0  0  0
    7.8593   -5.3772   15.3569 N   0  0  0  0  0  0  0  0  0  0  0  0
    7.4412   -6.9038   16.9283 C   0  0  0  0  0  0  0  0  0  0  0  0
  1 21  4  0
  1 23  4  0
  2  5  1  0
  2 13  4  0
  2 16  4  0
  3  6  4  0
  3  7  4  0
  4 13  4  0
  4 19  4  0
  4 24  4  0
  6 23  4  0
  7 16  1  0
  7 21  4  0
  8 18  1  0
  9 20  4  0
  9 22  4  0
 10 17  1  0
 10 25  1  0
 11 16  4  0
 11 19  4  0
 12 15  4  0
 12 22  4  0
 14 24  4  0
 14 25  4  0
 15 17  4  0
 17 20  4  0
 18 23  1  0
 19 25  4  0
M  END
$$$$

 Created by Python create_sdf_string function

 25 28  0  0  0  0  0  0  0  0999 V2000
   13.1533   -5.2399   21.0682 C   0  0  0  0  0  0  0  0  0  0  0  0
   10.4729   -4.0295   17.6135 C   0  0  0  0  0  0  0  0  0  0  0  0
   10.4789   -4.3641   20.9564 C   0  0  0  0  0  0  0  0  0  0  0  0
    8.7421   -5.1412   16.3650 C   0  0  0  0  0  0  0  0  0  0  0  0
   11.4353   -2.9204   17.8044 C   0  0  0  0  0  0  0  0  0  0  0  0
   11.1529   -4.3028   22.1277 C   0  0  0  0  0  0  0  0  0  0  0  0
   11.1290   -4.8502   19.8052 C   0  0  0  0  0  0  0  0  0  0  0  0
   12.4329   -4.2159   24.4224 C   0  0  0  0  0  0  0  0  0  0  0  0
    3.4740   -9.0387   16.5022 C   0  0  0  0  0  0  0  0  0  0  0  0
    6.8384   -7.9290   17.5282 N   0  0  0  0  0  0  0  0  0  0  0  0
    9.4126   -5.9853   18.4899 C   0  0  0  0  0  0  0  0  0  0  0  0
    4.2064  -10.3242   18.3302 C   0  0  0  0  0  0  0  0  0  0  0  0
    9.6599   -4.1551   16.4796 N   0  0  0  0  0  0  0  0  0  0  0  0
    7.0644   -6.4612   15.7375 N   0  0  0  0  0  0  0  0  0  0  0  0
    5.3549   -9.6322   18.3190 C   0  0  0  0  0  0  0  0  0  0  0  0
   10.3704   -4.9638   18.6510 C   0  0  0  0  0  0  0  0  0  0  0  0
    5.5935   -8.6419   17.4234 C   0  0  0  0  0  0  0  0  0  0  0  0
   13.0726   -4.6648   23.3394 O   0  0  0  0  0  0  0  0  0  0  0  0
    8.5955   -6.0705   17.3996 C   0  0  0  0  0  0  0  0  0  0  0  0
    4.6223   -8.3832   16.5030 C   0  0  0  0  0  0  0  0  0  0  0  0
   12.4690   -5.2624   19.9024 C   0  0  0  0  0  0  0  0  0  0  0  0
    3.2548   -9.9919   17.4189 C   0  0  0  0  0  0  0  0  0  0  0  0
   12.4767   -4.7393   22.1790 C   0  0  0  0  0  0  0  0  0  0  0  0
    7.8593   -5.3772   15.3569 N   0  0  0  0  0  0  0  0  0  0  0  0
    7.4412   -6.9038   16.9283 C   0  0  0  0  0  0  0  0  0  0  0  0
  1 21  4  0
  1 23  4  0
  2  5  1  0
  2 13  4  0
  2 16  4  0
  3  6  4  0
  3  7  4  0
  4 13  4  0
  4 19  4  0
  4 24  4  0
  6 23  4  0
  7 16  1  0
  7 21  4  0
  8 18  1  0
  9 20  4  0
  9 22  4  0
 10 17  1  0
 10 25  1  0
 11 16  4  0
 11 19  4  0
 12 15  4  0
 12 22  4  0
 14 24  4  0
 14 25  4  0
 15 17  4  0
 17 20  4  0
 18 23  1  0
 19 25  4  0
M  END
$$$$

 Created by Python create_sdf_string function

 25 28  0  0  0  0  0  0  0  0999 V2000
   13.1533   -5.2399   21.0682 C   0  0  0  0  0  0  0  0  0  0  0  0
   10.4729   -4.0295   17.6135 C   0  0  0  0  0  0  0  0  0  0  0  0
   10.4789   -4.3641   20.9564 C   0  0  0  0  0  0  0  0  0  0  0  0
    8.7421   -5.1412   16.3650 C   0  0  0  0  0  0  0  0  0  0  0  0
   11.4353   -2.9204   17.8044 C   0  0  0  0  0  0  0  0  0  0  0  0
   11.1529   -4.3028   22.1277 C   0  0  0  0  0  0  0  0  0  0  0  0
   11.1290   -4.8502   19.8052 C   0  0  0  0  0  0  0  0  0  0  0  0
   12.4329   -4.2159   24.4224 C   0  0  0  0  0  0  0  0  0  0  0  0
    3.4740   -9.0387   16.5022 C   0  0  0  0  0  0  0  0  0  0  0  0
    6.8384   -7.9290   17.5282 N   0  0  0  0  0  0  0  0  0  0  0  0
    9.4126   -5.9853   18.4899 C   0  0  0  0  0  0  0  0  0  0  0  0
    4.2064  -10.3242   18.3302 C   0  0  0  0  0  0  0  0  0  0  0  0
    9.6599   -4.1551   16.4796 N   0  0  0  0  0  0  0  0  0  0  0  0
    7.0644   -6.4612   15.7375 N   0  0  0  0  0  0  0  0  0  0  0  0
    5.3549   -9.6322   18.3190 C   0  0  0  0  0  0  0  0  0  0  0  0
   10.3704   -4.9638   18.6510 C   0  0  0  0  0  0  0  0  0  0  0  0
    5.5935   -8.6419   17.4234 C   0  0  0  0  0  0  0  0  0  0  0  0
   13.0726   -4.6648   23.3394 O   0  0  0  0  0  0  0  0  0  0  0  0
    8.5955   -6.0705   17.3996 C   0  0  0  0  0  0  0  0  0  0  0  0
    4.6223   -8.3832   16.5030 C   0  0  0  0  0  0  0  0  0  0  0  0
   12.4690   -5.2624   19.9024 C   0  0  0  0  0  0  0  0  0  0  0  0
    3.2548   -9.9919   17.4189 C   0  0  0  0  0  0  0  0  0  0  0  0
   12.4767   -4.7393   22.1790 C   0  0  0  0  0  0  0  0  0  0  0  0
    7.8593   -5.3772   15.3569 N   0  0  0  0  0  0  0  0  0  0  0  0
    7.4412   -6.9038   16.9283 C   0  0  0  0  0  0  0  0  0  0  0  0
  1 21  4  0
  1 23  4  0
  2  5  1  0
  2 13  4  0
  2 16  4  0
  3  6  4  0
  3  7  4  0
  4 13  4  0
  4 19  4  0
  4 24  4  0
  6 23  4  0
  7 16  1  0
  7 21  4  0
  8 18  1  0
  9 20  4  0
  9 22  4  0
 10 17  1  0
 10 25  1  0
 11 16  4  0
 11 19  4  0
 12 15  4  0
 12 22  4  0
 14 24  4  0
 14 25  4  0
 15 17  4  0
 17 20  4  0
 18 23  1  0
 19 25  4  0
M  END
$$$$

 Created by Python create_sdf_string function

 25 28  0  0  0  0  0  0  0  0999 V2000
   13.1533   -5.2399   21.0682 C   0  0  0  0  0  0  0  0  0  0  0  0
   10.4729   -4.0295   17.6135 C   0  0  0  0  0  0  0  0  0  0  0  0
   10.4789   -4.3641   20.9564 C   0  0  0  0  0  0  0  0  0  0  0  0
    8.7421   -5.1412   16.3650 C   0  0  0  0  0  0  0  0  0  0  0  0
   11.4353   -2.9204   17.8044 C   0  0  0  0  0  0  0  0  0  0  0  0
   11.1529   -4.3028   22.1277 C   0  0  0  0  0  0  0  0  0  0  0  0
   11.1290   -4.8502   19.8052 C   0  0  0  0  0  0  0  0  0  0  0  0
   12.4329   -4.2159   24.4224 C   0  0  0  0  0  0  0  0  0  0  0  0
    3.4740   -9.0387   16.5022 C   0  0  0  0  0  0  0  0  0  0  0  0
    6.8384   -7.9290   17.5282 N   0  0  0  0  0  0  0  0  0  0  0  0
    9.4126   -5.9853   18.4899 C   0  0  0  0  0  0  0  0  0  0  0  0
    4.2064  -10.3242   18.3302 C   0  0  0  0  0  0  0  0  0  0  0  0
    9.6599   -4.1551   16.4796 N   0  0  0  0  0  0  0  0  0  0  0  0
    7.0644   -6.4612   15.7375 N   0  0  0  0  0  0  0  0  0  0  0  0
    5.3549   -9.6322   18.3190 C   0  0  0  0  0  0  0  0  0  0  0  0
   10.3704   -4.9638   18.6510 C   0  0  0  0  0  0  0  0  0  0  0  0
    5.5935   -8.6419   17.4234 C   0  0  0  0  0  0  0  0  0  0  0  0
   13.0726   -4.6648   23.3394 O   0  0  0  0  0  0  0  0  0  0  0  0
    8.5955   -6.0705   17.3996 C   0  0  0  0  0  0  0  0  0  0  0  0
    4.6223   -8.3832   16.5030 C   0  0  0  0  0  0  0  0  0  0  0  0
   12.4690   -5.2624   19.9024 C   0  0  0  0  0  0  0  0  0  0  0  0
    3.2548   -9.9919   17.4189 C   0  0  0  0  0  0  0  0  0  0  0  0
   12.4767   -4.7393   22.1790 C   0  0  0  0  0  0  0  0  0  0  0  0
    7.8593   -5.3772   15.3569 N   0  0  0  0  0  0  0  0  0  0  0  0
    7.4412   -6.9038   16.9283 C   0  0  0  0  0  0  0  0  0  0  0  0
  1 21  4  0
  1 23  4  0
  2  5  1  0
  2 13  4  0
  2 16  4  0
  3  6  4  0
  3  7  4  0
  4 13  4  0
  4 19  4  0
  4 24  4  0
  6 23  4  0
  7 16  1  0
  7 21  4  0
  8 18  1  0
  9 20  4  0
  9 22  4  0
 10 17  1  0
 10 25  1  0
 11 16  4  0
 11 19  4  0
 12 15  4  0
 12 22  4  0
 14 24  4  0
 14 25  4  0
 15 17  4  0
 17 20  4  0
 18 23  1  0
 19 25  4  0
M  END
$$$$

 Created by Python create_sdf_string function

 25 28  0  0  0  0  0  0  0  0999 V2000
   13.1533   -5.2399   21.0682 C   0  0  0  0  0  0  0  0  0  0  0  0
   10.4729   -4.0295   17.6135 C   0  0  0  0  0  0  0  0  0  0  0  0
   10.4789   -4.3641   20.9564 C   0  0  0  0  0  0  0  0  0  0  0  0
    8.7421   -5.1412   16.3650 C   0  0  0  0  0  0  0  0  0  0  0  0
   11.4353   -2.9204   17.8044 C   0  0  0  0  0  0  0  0  0  0  0  0
   11.1529   -4.3028   22.1277 C   0  0  0  0  0  0  0  0  0  0  0  0
   11.1290   -4.8502   19.8052 C   0  0  0  0  0  0  0  0  0  0  0  0
   12.4329   -4.2159   24.4224 C   0  0  0  0  0  0  0  0  0  0  0  0
    3.4740   -9.0387   16.5022 C   0  0  0  0  0  0  0  0  0  0  0  0
    6.8384   -7.9290   17.5282 N   0  0  0  0  0  0  0  0  0  0  0  0
    9.4126   -5.9853   18.4899 C   0  0  0  0  0  0  0  0  0  0  0  0
    4.2064  -10.3242   18.3302 C   0  0  0  0  0  0  0  0  0  0  0  0
    9.6599   -4.1551   16.4796 N   0  0  0  0  0  0  0  0  0  0  0  0
    7.0644   -6.4612   15.7375 N   0  0  0  0  0  0  0  0  0  0  0  0
    5.3549   -9.6322   18.3190 C   0  0  0  0  0  0  0  0  0  0  0  0
   10.3704   -4.9638   18.6510 C   0  0  0  0  0  0  0  0  0  0  0  0
    5.5935   -8.6419   17.4234 C   0  0  0  0  0  0  0  0  0  0  0  0
   13.0726   -4.6648   23.3394 O   0  0  0  0  0  0  0  0  0  0  0  0
    8.5955   -6.0705   17.3996 C   0  0  0  0  0  0  0  0  0  0  0  0
    4.6223   -8.3832   16.5030 C   0  0  0  0  0  0  0  0  0  0  0  0
   12.4690   -5.2624   19.9024 C   0  0  0  0  0  0  0  0  0  0  0  0
    3.2548   -9.9919   17.4189 C   0  0  0  0  0  0  0  0  0  0  0  0
   12.4767   -4.7393   22.1790 C   0  0  0  0  0  0  0  0  0  0  0  0
    7.8593   -5.3772   15.3569 N   0  0  0  0  0  0  0  0  0  0  0  0
    7.4412   -6.9038   16.9283 C   0  0  0  0  0  0  0  0  0  0  0  0
  1 21  4  0
  1 23  4  0
  2  5  1  0
  2 13  4  0
  2 16  4  0
  3  6  4  0
  3  7  4  0
  4 13  4  0
  4 19  4  0
  4 24  4  0
  6 23  4  0
  7 16  1  0
  7 21  4  0
  8 18  1  0
  9 20  4  0
  9 22  4  0
 10 17  1  0
 10 25  1  0
 11 16  4  0
 11 19  4  0
 12 15  4  0
 12 22  4  0
 14 24  4  0
 14 25  4  0
 15 17  4  0
 17 20  4  0
 18 23  1  0
 19 25  4  0
M  END
$$$$

 Created by Python create_sdf_string function

 25 28  0  0  0  0  0  0  0  0999 V2000
   13.1533   -5.2399   21.0682 C   0  0  0  0  0  0  0  0  0  0  0  0
   10.4729   -4.0295   17.6135 C   0  0  0  0  0  0  0  0  0  0  0  0
   10.4789   -4.3641   20.9564 C   0  0  0  0  0  0  0  0  0  0  0  0
    8.7421   -5.1412   16.3650 C   0  0  0  0  0  0  0  0  0  0  0  0
   11.4353   -2.9204   17.8044 C   0  0  0  0  0  0  0  0  0  0  0  0
   11.1529   -4.3028   22.1277 C   0  0  0  0  0  0  0  0  0  0  0  0
   11.1290   -4.8502   19.8052 C   0  0  0  0  0  0  0  0  0  0  0  0
   12.4329   -4.2159   24.4224 C   0  0  0  0  0  0  0  0  0  0  0  0
    3.4740   -9.0387   16.5022 C   0  0  0  0  0  0  0  0  0  0  0  0
    6.8384   -7.9290   17.5282 N   0  0  0  0  0  0  0  0  0  0  0  0
    9.4126   -5.9853   18.4899 C   0  0  0  0  0  0  0  0  0  0  0  0
    4.2064  -10.3242   18.3302 C   0  0  0  0  0  0  0  0  0  0  0  0
    9.6599   -4.1551   16.4796 N   0  0  0  0  0  0  0  0  0  0  0  0
    7.0644   -6.4612   15.7375 N   0  0  0  0  0  0  0  0  0  0  0  0
    5.3549   -9.6322   18.3190 C   0  0  0  0  0  0  0  0  0  0  0  0
   10.3704   -4.9638   18.6510 C   0  0  0  0  0  0  0  0  0  0  0  0
    5.5935   -8.6419   17.4234 C   0  0  0  0  0  0  0  0  0  0  0  0
   13.0726   -4.6648   23.3394 O   0  0  0  0  0  0  0  0  0  0  0  0
    8.5955   -6.0705   17.3996 C   0  0  0  0  0  0  0  0  0  0  0  0
    4.6223   -8.3832   16.5030 C   0  0  0  0  0  0  0  0  0  0  0  0
   12.4690   -5.2624   19.9024 C   0  0  0  0  0  0  0  0  0  0  0  0
    3.2548   -9.9919   17.4189 C   0  0  0  0  0  0  0  0  0  0  0  0
   12.4767   -4.7393   22.1790 C   0  0  0  0  0  0  0  0  0  0  0  0
    7.8593   -5.3772   15.3569 N   0  0  0  0  0  0  0  0  0  0  0  0
    7.4412   -6.9038   16.9283 C   0  0  0  0  0  0  0  0  0  0  0  0
  1 21  4  0
  1 23  4  0
  2  5  1  0
  2 13  4  0
  2 16  4  0
  3  6  4  0
  3  7  4  0
  4 13  4  0
  4 19  4  0
  4 24  4  0
  6 23  4  0
  7 16  1  0
  7 21  4  0
  8 18  1  0
  9 20  4  0
  9 22  4  0
 10 17  1  0
 10 25  1  0
 11 16  4  0
 11 19  4  0
 12 15  4  0
 12 22  4  0
 14 24  4  0
 14 25  4  0
 15 17  4  0
 17 20  4  0
 18 23  1  0
 19 25  4  0
M  END
$$$$

 Created by Python create_sdf_string function

 25 28  0  0  0  0  0  0  0  0999 V2000
   13.1533   -5.2399   21.0682 C   0  0  0  0  0  0  0  0  0  0  0  0
   10.4729   -4.0295   17.6135 C   0  0  0  0  0  0  0  0  0  0  0  0
   10.4789   -4.3641   20.9564 C   0  0  0  0  0  0  0  0  0  0  0  0
    8.7421   -5.1412   16.3650 C   0  0  0  0  0  0  0  0  0  0  0  0
   11.4353   -2.9204   17.8044 C   0  0  0  0  0  0  0  0  0  0  0  0
   11.1529   -4.3028   22.1277 C   0  0  0  0  0  0  0  0  0  0  0  0
   11.1290   -4.8502   19.8052 C   0  0  0  0  0  0  0  0  0  0  0  0
   12.4329   -4.2159   24.4224 C   0  0  0  0  0  0  0  0  0  0  0  0
    3.4740   -9.0387   16.5022 C   0  0  0  0  0  0  0  0  0  0  0  0
    6.8384   -7.9290   17.5282 N   0  0  0  0  0  0  0  0  0  0  0  0
    9.4126   -5.9853   18.4899 C   0  0  0  0  0  0  0  0  0  0  0  0
    4.2064  -10.3242   18.3302 C   0  0  0  0  0  0  0  0  0  0  0  0
    9.6599   -4.1551   16.4796 N   0  0  0  0  0  0  0  0  0  0  0  0
    7.0644   -6.4612   15.7375 N   0  0  0  0  0  0  0  0  0  0  0  0
    5.3549   -9.6322   18.3190 C   0  0  0  0  0  0  0  0  0  0  0  0
   10.3704   -4.9638   18.6510 C   0  0  0  0  0  0  0  0  0  0  0  0
    5.5935   -8.6419   17.4234 C   0  0  0  0  0  0  0  0  0  0  0  0
   13.0726   -4.6648   23.3394 O   0  0  0  0  0  0  0  0  0  0  0  0
    8.5955   -6.0705   17.3996 C   0  0  0  0  0  0  0  0  0  0  0  0
    4.6223   -8.3832   16.5030 C   0  0  0  0  0  0  0  0  0  0  0  0
   12.4690   -5.2624   19.9024 C   0  0  0  0  0  0  0  0  0  0  0  0
    3.2548   -9.9919   17.4189 C   0  0  0  0  0  0  0  0  0  0  0  0
   12.4767   -4.7393   22.1790 C   0  0  0  0  0  0  0  0  0  0  0  0
    7.8593   -5.3772   15.3569 N   0  0  0  0  0  0  0  0  0  0  0  0
    7.4412   -6.9038   16.9283 C   0  0  0  0  0  0  0  0  0  0  0  0
  1 21  4  0
  1 23  4  0
  2  5  1  0
  2 13  4  0
  2 16  4  0
  3  6  4  0
  3  7  4  0
  4 13  4  0
  4 19  4  0
  4 24  4  0
  6 23  4  0
  7 16  1  0
  7 21  4  0
  8 18  1  0
  9 20  4  0
  9 22  4  0
 10 17  1  0
 10 25  1  0
 11 16  4  0
 11 19  4  0
 12 15  4  0
 12 22  4  0
 14 24  4  0
 14 25  4  0
 15 17  4  0
 17 20  4  0
 18 23  1  0
 19 25  4  0
M  END
$$$$

 Created by Python create_sdf_string function

 25 28  0  0  0  0  0  0  0  0999 V2000
   13.1533   -5.2399   21.0682 C   0  0  0  0  0  0  0  0  0  0  0  0
   10.4729   -4.0295   17.6135 C   0  0  0  0  0  0  0  0  0  0  0  0
   10.4789   -4.3641   20.9564 C   0  0  0  0  0  0  0  0  0  0  0  0
    8.7421   -5.1412   16.3650 C   0  0  0  0  0  0  0  0  0  0  0  0
   11.4353   -2.9204   17.8044 C   0  0  0  0  0  0  0  0  0  0  0  0
   11.1529   -4.3028   22.1277 C   0  0  0  0  0  0  0  0  0  0  0  0
   11.1290   -4.8502   19.8052 C   0  0  0  0  0  0  0  0  0  0  0  0
   12.4329   -4.2159   24.4224 C   0  0  0  0  0  0  0  0  0  0  0  0
    3.4740   -9.0387   16.5022 C   0  0  0  0  0  0  0  0  0  0  0  0
    6.8384   -7.9290   17.5282 N   0  0  0  0  0  0  0  0  0  0  0  0
    9.4126   -5.9853   18.4899 C   0  0  0  0  0  0  0  0  0  0  0  0
    4.2064  -10.3242   18.3302 C   0  0  0  0  0  0  0  0  0  0  0  0
    9.6599   -4.1551   16.4796 N   0  0  0  0  0  0  0  0  0  0  0  0
    7.0644   -6.4612   15.7375 N   0  0  0  0  0  0  0  0  0  0  0  0
    5.3549   -9.6322   18.3190 C   0  0  0  0  0  0  0  0  0  0  0  0
   10.3704   -4.9638   18.6510 C   0  0  0  0  0  0  0  0  0  0  0  0
    5.5935   -8.6419   17.4234 C   0  0  0  0  0  0  0  0  0  0  0  0
   13.0726   -4.6648   23.3394 O   0  0  0  0  0  0  0  0  0  0  0  0
    8.5955   -6.0705   17.3996 C   0  0  0  0  0  0  0  0  0  0  0  0
    4.6223   -8.3832   16.5030 C   0  0  0  0  0  0  0  0  0  0  0  0
   12.4690   -5.2624   19.9024 C   0  0  0  0  0  0  0  0  0  0  0  0
    3.2548   -9.9919   17.4189 C   0  0  0  0  0  0  0  0  0  0  0  0
   12.4767   -4.7393   22.1790 C   0  0  0  0  0  0  0  0  0  0  0  0
    7.8593   -5.3772   15.3569 N   0  0  0  0  0  0  0  0  0  0  0  0
    7.4412   -6.9038   16.9283 C   0  0  0  0  0  0  0  0  0  0  0  0
  1 21  4  0
  1 23  4  0
  2  5  1  0
  2 13  4  0
  2 16  4  0
  3  6  4  0
  3  7  4  0
  4 13  4  0
  4 19  4  0
  4 24  4  0
  6 23  4  0
  7 16  1  0
  7 21  4  0
  8 18  1  0
  9 20  4  0
  9 22  4  0
 10 17  1  0
 10 25  1  0
 11 16  4  0
 11 19  4  0
 12 15  4  0
 12 22  4  0
 14 24  4  0
 14 25  4  0
 15 17  4  0
 17 20  4  0
 18 23  1  0
 19 25  4  0
M  END
$$$$

 Created by Python create_sdf_string function

 25 28  0  0  0  0  0  0  0  0999 V2000
   13.1533   -5.2399   21.0682 C   0  0  0  0  0  0  0  0  0  0  0  0
   10.4729   -4.0295   17.6135 C   0  0  0  0  0  0  0  0  0  0  0  0
   10.4789   -4.3641   20.9564 C   0  0  0  0  0  0  0  0  0  0  0  0
    8.7421   -5.1412   16.3650 C   0  0  0  0  0  0  0  0  0  0  0  0
   11.4353   -2.9204   17.8044 C   0  0  0  0  0  0  0  0  0  0  0  0
   11.1529   -4.3028   22.1277 C   0  0  0  0  0  0  0  0  0  0  0  0
   11.1290   -4.8502   19.8052 C   0  0  0  0  0  0  0  0  0  0  0  0
   12.4329   -4.2159   24.4224 C   0  0  0  0  0  0  0  0  0  0  0  0
    3.4740   -9.0387   16.5022 C   0  0  0  0  0  0  0  0  0  0  0  0
    6.8384   -7.9290   17.5282 N   0  0  0  0  0  0  0  0  0  0  0  0
    9.4126   -5.9853   18.4899 C   0  0  0  0  0  0  0  0  0  0  0  0
    4.2064  -10.3242   18.3302 C   0  0  0  0  0  0  0  0  0  0  0  0
    9.6599   -4.1551   16.4796 N   0  0  0  0  0  0  0  0  0  0  0  0
    7.0644   -6.4612   15.7375 N   0  0  0  0  0  0  0  0  0  0  0  0
    5.3549   -9.6322   18.3190 C   0  0  0  0  0  0  0  0  0  0  0  0
   10.3704   -4.9638   18.6510 C   0  0  0  0  0  0  0  0  0  0  0  0
    5.5935   -8.6419   17.4234 C   0  0  0  0  0  0  0  0  0  0  0  0
   13.0726   -4.6648   23.3394 O   0  0  0  0  0  0  0  0  0  0  0  0
    8.5955   -6.0705   17.3996 C   0  0  0  0  0  0  0  0  0  0  0  0
    4.6223   -8.3832   16.5030 C   0  0  0  0  0  0  0  0  0  0  0  0
   12.4690   -5.2624   19.9024 C   0  0  0  0  0  0  0  0  0  0  0  0
    3.2548   -9.9919   17.4189 C   0  0  0  0  0  0  0  0  0  0  0  0
   12.4767   -4.7393   22.1790 C   0  0  0  0  0  0  0  0  0  0  0  0
    7.8593   -5.3772   15.3569 N   0  0  0  0  0  0  0  0  0  0  0  0
    7.4412   -6.9038   16.9283 C   0  0  0  0  0  0  0  0  0  0  0  0
  1 21  4  0
  1 23  4  0
  2  5  1  0
  2 13  4  0
  2 16  4  0
  3  6  4  0
  3  7  4  0
  4 13  4  0
  4 19  4  0
  4 24  4  0
  6 23  4  0
  7 16  1  0
  7 21  4  0
  8 18  1  0
  9 20  4  0
  9 22  4  0
 10 17  1  0
 10 25  1  0
 11 16  4  0
 11 19  4  0
 12 15  4  0
 12 22  4  0
 14 24  4  0
 14 25  4  0
 15 17  4  0
 17 20  4  0
 18 23  1  0
 19 25  4  0
M  END
$$$$

 Created by Python create_sdf_string function

 25 28  0  0  0  0  0  0  0  0999 V2000
   13.1533   -5.2399   21.0682 C   0  0  0  0  0  0  0  0  0  0  0  0
   10.4729   -4.0295   17.6135 C   0  0  0  0  0  0  0  0  0  0  0  0
   10.4789   -4.3641   20.9564 C   0  0  0  0  0  0  0  0  0  0  0  0
    8.7421   -5.1412   16.3650 C   0  0  0  0  0  0  0  0  0  0  0  0
   11.4353   -2.9204   17.8044 C   0  0  0  0  0  0  0  0  0  0  0  0
   11.1529   -4.3028   22.1277 C   0  0  0  0  0  0  0  0  0  0  0  0
   11.1290   -4.8502   19.8052 C   0  0  0  0  0  0  0  0  0  0  0  0
   12.4329   -4.2159   24.4224 C   0  0  0  0  0  0  0  0  0  0  0  0
    3.4740   -9.0387   16.5022 C   0  0  0  0  0  0  0  0  0  0  0  0
    6.8384   -7.9290   17.5282 N   0  0  0  0  0  0  0  0  0  0  0  0
    9.4126   -5.9853   18.4899 C   0  0  0  0  0  0  0  0  0  0  0  0
    4.2064  -10.3242   18.3302 C   0  0  0  0  0  0  0  0  0  0  0  0
    9.6599   -4.1551   16.4796 N   0  0  0  0  0  0  0  0  0  0  0  0
    7.0644   -6.4612   15.7375 N   0  0  0  0  0  0  0  0  0  0  0  0
    5.3549   -9.6322   18.3190 C   0  0  0  0  0  0  0  0  0  0  0  0
   10.3704   -4.9638   18.6510 C   0  0  0  0  0  0  0  0  0  0  0  0
    5.5935   -8.6419   17.4234 C   0  0  0  0  0  0  0  0  0  0  0  0
   13.0726   -4.6648   23.3394 O   0  0  0  0  0  0  0  0  0  0  0  0
    8.5955   -6.0705   17.3996 C   0  0  0  0  0  0  0  0  0  0  0  0
    4.6223   -8.3832   16.5030 C   0  0  0  0  0  0  0  0  0  0  0  0
   12.4690   -5.2624   19.9024 C   0  0  0  0  0  0  0  0  0  0  0  0
    3.2548   -9.9919   17.4189 C   0  0  0  0  0  0  0  0  0  0  0  0
   12.4767   -4.7393   22.1790 C   0  0  0  0  0  0  0  0  0  0  0  0
    7.8593   -5.3772   15.3569 N   0  0  0  0  0  0  0  0  0  0  0  0
    7.4412   -6.9038   16.9283 C   0  0  0  0  0  0  0  0  0  0  0  0
  1 21  4  0
  1 23  4  0
  2  5  1  0
  2 13  4  0
  2 16  4  0
  3  6  4  0
  3  7  4  0
  4 13  4  0
  4 19  4  0
  4 24  4  0
  6 23  4  0
  7 16  1  0
  7 21  4  0
  8 18  1  0
  9 20  4  0
  9 22  4  0
 10 17  1  0
 10 25  1  0
 11 16  4  0
 11 19  4  0
 12 15  4  0
 12 22  4  0
 14 24  4  0
 14 25  4  0
 15 17  4  0
 17 20  4  0
 18 23  1  0
 19 25  4  0
M  END
$$$$

 Created by Python create_sdf_string function

 25 28  0  0  0  0  0  0  0  0999 V2000
   13.1533   -5.2399   21.0682 C   0  0  0  0  0  0  0  0  0  0  0  0
   10.4729   -4.0295   17.6135 C   0  0  0  0  0  0  0  0  0  0  0  0
   10.4789   -4.3641   20.9564 C   0  0  0  0  0  0  0  0  0  0  0  0
    8.7421   -5.1412   16.3650 C   0  0  0  0  0  0  0  0  0  0  0  0
   11.4353   -2.9204   17.8044 C   0  0  0  0  0  0  0  0  0  0  0  0
   11.1529   -4.3028   22.1277 C   0  0  0  0  0  0  0  0  0  0  0  0
   11.1290   -4.8502   19.8052 C   0  0  0  0  0  0  0  0  0  0  0  0
   12.4329   -4.2159   24.4224 C   0  0  0  0  0  0  0  0  0  0  0  0
    3.4740   -9.0387   16.5022 C   0  0  0  0  0  0  0  0  0  0  0  0
    6.8384   -7.9290   17.5282 N   0  0  0  0  0  0  0  0  0  0  0  0
    9.4126   -5.9853   18.4899 C   0  0  0  0  0  0  0  0  0  0  0  0
    4.2064  -10.3242   18.3302 C   0  0  0  0  0  0  0  0  0  0  0  0
    9.6599   -4.1551   16.4796 N   0  0  0  0  0  0  0  0  0  0  0  0
    7.0644   -6.4612   15.7375 N   0  0  0  0  0  0  0  0  0  0  0  0
    5.3549   -9.6322   18.3190 C   0  0  0  0  0  0  0  0  0  0  0  0
   10.3704   -4.9638   18.6510 C   0  0  0  0  0  0  0  0  0  0  0  0
    5.5935   -8.6419   17.4234 C   0  0  0  0  0  0  0  0  0  0  0  0
   13.0726   -4.6648   23.3394 O   0  0  0  0  0  0  0  0  0  0  0  0
    8.5955   -6.0705   17.3996 C   0  0  0  0  0  0  0  0  0  0  0  0
    4.6223   -8.3832   16.5030 C   0  0  0  0  0  0  0  0  0  0  0  0
   12.4690   -5.2624   19.9024 C   0  0  0  0  0  0  0  0  0  0  0  0
    3.2548   -9.9919   17.4189 C   0  0  0  0  0  0  0  0  0  0  0  0
   12.4767   -4.7393   22.1790 C   0  0  0  0  0  0  0  0  0  0  0  0
    7.8593   -5.3772   15.3569 N   0  0  0  0  0  0  0  0  0  0  0  0
    7.4412   -6.9038   16.9283 C   0  0  0  0  0  0  0  0  0  0  0  0
  1 21  4  0
  1 23  4  0
  2  5  1  0
  2 13  4  0
  2 16  4  0
  3  6  4  0
  3  7  4  0
  4 13  4  0
  4 19  4  0
  4 24  4  0
  6 23  4  0
  7 16  1  0
  7 21  4  0
  8 18  1  0
  9 20  4  0
  9 22  4  0
 10 17  1  0
 10 25  1  0
 11 16  4  0
 11 19  4  0
 12 15  4  0
 12 22  4  0
 14 24  4  0
 14 25  4  0
 15 17  4  0
 17 20  4  0
 18 23  1  0
 19 25  4  0
M  END
$$$$

 Created by Python create_sdf_string function

 25 28  0  0  0  0  0  0  0  0999 V2000
   13.1533   -5.2399   21.0682 C   0  0  0  0  0  0  0  0  0  0  0  0
   10.4729   -4.0295   17.6135 C   0  0  0  0  0  0  0  0  0  0  0  0
   10.4789   -4.3641   20.9564 C   0  0  0  0  0  0  0  0  0  0  0  0
    8.7421   -5.1412   16.3650 C   0  0  0  0  0  0  0  0  0  0  0  0
   11.4353   -2.9204   17.8044 C   0  0  0  0  0  0  0  0  0  0  0  0
   11.1529   -4.3028   22.1277 C   0  0  0  0  0  0  0  0  0  0  0  0
   11.1290   -4.8502   19.8052 C   0  0  0  0  0  0  0  0  0  0  0  0
   12.4329   -4.2159   24.4224 C   0  0  0  0  0  0  0  0  0  0  0  0
    3.4740   -9.0387   16.5022 C   0  0  0  0  0  0  0  0  0  0  0  0
    6.8384   -7.9290   17.5282 N   0  0  0  0  0  0  0  0  0  0  0  0
    9.4126   -5.9853   18.4899 C   0  0  0  0  0  0  0  0  0  0  0  0
    4.2064  -10.3242   18.3302 C   0  0  0  0  0  0  0  0  0  0  0  0
    9.6599   -4.1551   16.4796 N   0  0  0  0  0  0  0  0  0  0  0  0
    7.0644   -6.4612   15.7375 N   0  0  0  0  0  0  0  0  0  0  0  0
    5.3549   -9.6322   18.3190 C   0  0  0  0  0  0  0  0  0  0  0  0
   10.3704   -4.9638   18.6510 C   0  0  0  0  0  0  0  0  0  0  0  0
    5.5935   -8.6419   17.4234 C   0  0  0  0  0  0  0  0  0  0  0  0
   13.0726   -4.6648   23.3394 O   0  0  0  0  0  0  0  0  0  0  0  0
    8.5955   -6.0705   17.3996 C   0  0  0  0  0  0  0  0  0  0  0  0
    4.6223   -8.3832   16.5030 C   0  0  0  0  0  0  0  0  0  0  0  0
   12.4690   -5.2624   19.9024 C   0  0  0  0  0  0  0  0  0  0  0  0
    3.2548   -9.9919   17.4189 C   0  0  0  0  0  0  0  0  0  0  0  0
   12.4767   -4.7393   22.1790 C   0  0  0  0  0  0  0  0  0  0  0  0
    7.8593   -5.3772   15.3569 N   0  0  0  0  0  0  0  0  0  0  0  0
    7.4412   -6.9038   16.9283 C   0  0  0  0  0  0  0  0  0  0  0  0
  1 21  4  0
  1 23  4  0
  2  5  1  0
  2 13  4  0
  2 16  4  0
  3  6  4  0
  3  7  4  0
  4 13  4  0
  4 19  4  0
  4 24  4  0
  6 23  4  0
  7 16  1  0
  7 21  4  0
  8 18  1  0
  9 20  4  0
  9 22  4  0
 10 17  1  0
 10 25  1  0
 11 16  4  0
 11 19  4  0
 12 15  4  0
 12 22  4  0
 14 24  4  0
 14 25  4  0
 15 17  4  0
 17 20  4  0
 18 23  1  0
 19 25  4  0
M  END
$$$$

 Created by Python create_sdf_string function

 25 28  0  0  0  0  0  0  0  0999 V2000
   13.1533   -5.2399   21.0682 C   0  0  0  0  0  0  0  0  0  0  0  0
   10.4729   -4.0295   17.6135 C   0  0  0  0  0  0  0  0  0  0  0  0
   10.4789   -4.3641   20.9564 C   0  0  0  0  0  0  0  0  0  0  0  0
    8.7421   -5.1412   16.3650 C   0  0  0  0  0  0  0  0  0  0  0  0
   11.4353   -2.9204   17.8044 C   0  0  0  0  0  0  0  0  0  0  0  0
   11.1529   -4.3028   22.1277 C   0  0  0  0  0  0  0  0  0  0  0  0
   11.1290   -4.8502   19.8052 C   0  0  0  0  0  0  0  0  0  0  0  0
   12.4329   -4.2159   24.4224 C   0  0  0  0  0  0  0  0  0  0  0  0
    3.4740   -9.0387   16.5022 C   0  0  0  0  0  0  0  0  0  0  0  0
    6.8384   -7.9290   17.5282 N   0  0  0  0  0  0  0  0  0  0  0  0
    9.4126   -5.9853   18.4899 C   0  0  0  0  0  0  0  0  0  0  0  0
    4.2064  -10.3242   18.3302 C   0  0  0  0  0  0  0  0  0  0  0  0
    9.6599   -4.1551   16.4796 N   0  0  0  0  0  0  0  0  0  0  0  0
    7.0644   -6.4612   15.7375 N   0  0  0  0  0  0  0  0  0  0  0  0
    5.3549   -9.6322   18.3190 C   0  0  0  0  0  0  0  0  0  0  0  0
   10.3704   -4.9638   18.6510 C   0  0  0  0  0  0  0  0  0  0  0  0
    5.5935   -8.6419   17.4234 C   0  0  0  0  0  0  0  0  0  0  0  0
   13.0726   -4.6648   23.3394 O   0  0  0  0  0  0  0  0  0  0  0  0
    8.5955   -6.0705   17.3996 C   0  0  0  0  0  0  0  0  0  0  0  0
    4.6223   -8.3832   16.5030 C   0  0  0  0  0  0  0  0  0  0  0  0
   12.4690   -5.2624   19.9024 C   0  0  0  0  0  0  0  0  0  0  0  0
    3.2548   -9.9919   17.4189 C   0  0  0  0  0  0  0  0  0  0  0  0
   12.4767   -4.7393   22.1790 C   0  0  0  0  0  0  0  0  0  0  0  0
    7.8593   -5.3772   15.3569 N   0  0  0  0  0  0  0  0  0  0  0  0
    7.4412   -6.9038   16.9283 C   0  0  0  0  0  0  0  0  0  0  0  0
  1 21  4  0
  1 23  4  0
  2  5  1  0
  2 13  4  0
  2 16  4  0
  3  6  4  0
  3  7  4  0
  4 13  4  0
  4 19  4  0
  4 24  4  0
  6 23  4  0
  7 16  1  0
  7 21  4  0
  8 18  1  0
  9 20  4  0
  9 22  4  0
 10 17  1  0
 10 25  1  0
 11 16  4  0
 11 19  4  0
 12 15  4  0
 12 22  4  0
 14 24  4  0
 14 25  4  0
 15 17  4  0
 17 20  4  0
 18 23  1  0
 19 25  4  0
M  END
$$$$

 Created by Python create_sdf_string function

 25 28  0  0  0  0  0  0  0  0999 V2000
   13.1533   -5.2399   21.0682 C   0  0  0  0  0  0  0  0  0  0  0  0
   10.4729   -4.0295   17.6135 C   0  0  0  0  0  0  0  0  0  0  0  0
   10.4789   -4.3641   20.9564 C   0  0  0  0  0  0  0  0  0  0  0  0
    8.7421   -5.1412   16.3650 C   0  0  0  0  0  0  0  0  0  0  0  0
   11.4353   -2.9204   17.8044 C   0  0  0  0  0  0  0  0  0  0  0  0
   11.1529   -4.3028   22.1277 C   0  0  0  0  0  0  0  0  0  0  0  0
   11.1290   -4.8502   19.8052 C   0  0  0  0  0  0  0  0  0  0  0  0
   12.4329   -4.2159   24.4224 C   0  0  0  0  0  0  0  0  0  0  0  0
    3.4740   -9.0387   16.5022 C   0  0  0  0  0  0  0  0  0  0  0  0
    6.8384   -7.9290   17.5282 N   0  0  0  0  0  0  0  0  0  0  0  0
    9.4126   -5.9853   18.4899 C   0  0  0  0  0  0  0  0  0  0  0  0
    4.2064  -10.3242   18.3302 C   0  0  0  0  0  0  0  0  0  0  0  0
    9.6599   -4.1551   16.4796 N   0  0  0  0  0  0  0  0  0  0  0  0
    7.0644   -6.4612   15.7375 N   0  0  0  0  0  0  0  0  0  0  0  0
    5.3549   -9.6322   18.3190 C   0  0  0  0  0  0  0  0  0  0  0  0
   10.3704   -4.9638   18.6510 C   0  0  0  0  0  0  0  0  0  0  0  0
    5.5935   -8.6419   17.4234 C   0  0  0  0  0  0  0  0  0  0  0  0
   13.0726   -4.6648   23.3394 O   0  0  0  0  0  0  0  0  0  0  0  0
    8.5955   -6.0705   17.3996 C   0  0  0  0  0  0  0  0  0  0  0  0
    4.6223   -8.3832   16.5030 C   0  0  0  0  0  0  0  0  0  0  0  0
   12.4690   -5.2624   19.9024 C   0  0  0  0  0  0  0  0  0  0  0  0
    3.2548   -9.9919   17.4189 C   0  0  0  0  0  0  0  0  0  0  0  0
   12.4767   -4.7393   22.1790 C   0  0  0  0  0  0  0  0  0  0  0  0
    7.8593   -5.3772   15.3569 N   0  0  0  0  0  0  0  0  0  0  0  0
    7.4412   -6.9038   16.9283 C   0  0  0  0  0  0  0  0  0  0  0  0
  1 21  4  0
  1 23  4  0
  2  5  1  0
  2 13  4  0
  2 16  4  0
  3  6  4  0
  3  7  4  0
  4 13  4  0
  4 19  4  0
  4 24  4  0
  6 23  4  0
  7 16  1  0
  7 21  4  0
  8 18  1  0
  9 20  4  0
  9 22  4  0
 10 17  1  0
 10 25  1  0
 11 16  4  0
 11 19  4  0
 12 15  4  0
 12 22  4  0
 14 24  4  0
 14 25  4  0
 15 17  4  0
 17 20  4  0
 18 23  1  0
 19 25  4  0
M  END
$$$$

 Created by Python create_sdf_string function

 25 28  0  0  0  0  0  0  0  0999 V2000
   13.1533   -5.2399   21.0682 C   0  0  0  0  0  0  0  0  0  0  0  0
   10.4729   -4.0295   17.6135 C   0  0  0  0  0  0  0  0  0  0  0  0
   10.4789   -4.3641   20.9564 C   0  0  0  0  0  0  0  0  0  0  0  0
    8.7421   -5.1412   16.3650 C   0  0  0  0  0  0  0  0  0  0  0  0
   11.4353   -2.9204   17.8044 C   0  0  0  0  0  0  0  0  0  0  0  0
   11.1529   -4.3028   22.1277 C   0  0  0  0  0  0  0  0  0  0  0  0
   11.1290   -4.8502   19.8052 C   0  0  0  0  0  0  0  0  0  0  0  0
   12.4329   -4.2159   24.4224 C   0  0  0  0  0  0  0  0  0  0  0  0
    3.4740   -9.0387   16.5022 C   0  0  0  0  0  0  0  0  0  0  0  0
    6.8384   -7.9290   17.5282 N   0  0  0  0  0  0  0  0  0  0  0  0
    9.4126   -5.9853   18.4899 C   0  0  0  0  0  0  0  0  0  0  0  0
    4.2064  -10.3242   18.3302 C   0  0  0  0  0  0  0  0  0  0  0  0
    9.6599   -4.1551   16.4796 N   0  0  0  0  0  0  0  0  0  0  0  0
    7.0644   -6.4612   15.7375 N   0  0  0  0  0  0  0  0  0  0  0  0
    5.3549   -9.6322   18.3190 C   0  0  0  0  0  0  0  0  0  0  0  0
   10.3704   -4.9638   18.6510 C   0  0  0  0  0  0  0  0  0  0  0  0
    5.5935   -8.6419   17.4234 C   0  0  0  0  0  0  0  0  0  0  0  0
   13.0726   -4.6648   23.3394 O   0  0  0  0  0  0  0  0  0  0  0  0
    8.5955   -6.0705   17.3996 C   0  0  0  0  0  0  0  0  0  0  0  0
    4.6223   -8.3832   16.5030 C   0  0  0  0  0  0  0  0  0  0  0  0
   12.4690   -5.2624   19.9024 C   0  0  0  0  0  0  0  0  0  0  0  0
    3.2548   -9.9919   17.4189 C   0  0  0  0  0  0  0  0  0  0  0  0
   12.4767   -4.7393   22.1790 C   0  0  0  0  0  0  0  0  0  0  0  0
    7.8593   -5.3772   15.3569 N   0  0  0  0  0  0  0  0  0  0  0  0
    7.4412   -6.9038   16.9283 C   0  0  0  0  0  0  0  0  0  0  0  0
  1 21  4  0
  1 23  4  0
  2  5  1  0
  2 13  4  0
  2 16  4  0
  3  6  4  0
  3  7  4  0
  4 13  4  0
  4 19  4  0
  4 24  4  0
  6 23  4  0
  7 16  1  0
  7 21  4  0
  8 18  1  0
  9 20  4  0
  9 22  4  0
 10 17  1  0
 10 25  1  0
 11 16  4  0
 11 19  4  0
 12 15  4  0
 12 22  4  0
 14 24  4  0
 14 25  4  0
 15 17  4  0
 17 20  4  0
 18 23  1  0
 19 25  4  0
M  END
$$$$

 Created by Python create_sdf_string function

 25 28  0  0  0  0  0  0  0  0999 V2000
   13.1533   -5.2399   21.0682 C   0  0  0  0  0  0  0  0  0  0  0  0
   10.4729   -4.0295   17.6135 C   0  0  0  0  0  0  0  0  0  0  0  0
   10.4789   -4.3641   20.9564 C   0  0  0  0  0  0  0  0  0  0  0  0
    8.7421   -5.1412   16.3650 C   0  0  0  0  0  0  0  0  0  0  0  0
   11.4353   -2.9204   17.8044 C   0  0  0  0  0  0  0  0  0  0  0  0
   11.1529   -4.3028   22.1277 C   0  0  0  0  0  0  0  0  0  0  0  0
   11.1290   -4.8502   19.8052 C   0  0  0  0  0  0  0  0  0  0  0  0
   12.4329   -4.2159   24.4224 C   0  0  0  0  0  0  0  0  0  0  0  0
    3.4740   -9.0387   16.5022 C   0  0  0  0  0  0  0  0  0  0  0  0
    6.8384   -7.9290   17.5282 N   0  0  0  0  0  0  0  0  0  0  0  0
    9.4126   -5.9853   18.4899 C   0  0  0  0  0  0  0  0  0  0  0  0
    4.2064  -10.3242   18.3302 C   0  0  0  0  0  0  0  0  0  0  0  0
    9.6599   -4.1551   16.4796 N   0  0  0  0  0  0  0  0  0  0  0  0
    7.0644   -6.4612   15.7375 N   0  0  0  0  0  0  0  0  0  0  0  0
    5.3549   -9.6322   18.3190 C   0  0  0  0  0  0  0  0  0  0  0  0
   10.3704   -4.9638   18.6510 C   0  0  0  0  0  0  0  0  0  0  0  0
    5.5935   -8.6419   17.4234 C   0  0  0  0  0  0  0  0  0  0  0  0
   13.0726   -4.6648   23.3394 O   0  0  0  0  0  0  0  0  0  0  0  0
    8.5955   -6.0705   17.3996 C   0  0  0  0  0  0  0  0  0  0  0  0
    4.6223   -8.3832   16.5030 C   0  0  0  0  0  0  0  0  0  0  0  0
   12.4690   -5.2624   19.9024 C   0  0  0  0  0  0  0  0  0  0  0  0
    3.2548   -9.9919   17.4189 C   0  0  0  0  0  0  0  0  0  0  0  0
   12.4767   -4.7393   22.1790 C   0  0  0  0  0  0  0  0  0  0  0  0
    7.8593   -5.3772   15.3569 N   0  0  0  0  0  0  0  0  0  0  0  0
    7.4412   -6.9038   16.9283 C   0  0  0  0  0  0  0  0  0  0  0  0
  1 21  4  0
  1 23  4  0
  2  5  1  0
  2 13  4  0
  2 16  4  0
  3  6  4  0
  3  7  4  0
  4 13  4  0
  4 19  4  0
  4 24  4  0
  6 23  4  0
  7 16  1  0
  7 21  4  0
  8 18  1  0
  9 20  4  0
  9 22  4  0
 10 17  1  0
 10 25  1  0
 11 16  4  0
 11 19  4  0
 12 15  4  0
 12 22  4  0
 14 24  4  0
 14 25  4  0
 15 17  4  0
 17 20  4  0
 18 23  1  0
 19 25  4  0
M  END
$$$$

 Created by Python create_sdf_string function

 25 28  0  0  0  0  0  0  0  0999 V2000
   13.1533   -5.2399   21.0682 C   0  0  0  0  0  0  0  0  0  0  0  0
   10.4729   -4.0295   17.6135 C   0  0  0  0  0  0  0  0  0  0  0  0
   10.4789   -4.3641   20.9564 C   0  0  0  0  0  0  0  0  0  0  0  0
    8.7421   -5.1412   16.3650 C   0  0  0  0  0  0  0  0  0  0  0  0
   11.4353   -2.9204   17.8044 C   0  0  0  0  0  0  0  0  0  0  0  0
   11.1529   -4.3028   22.1277 C   0  0  0  0  0  0  0  0  0  0  0  0
   11.1290   -4.8502   19.8052 C   0  0  0  0  0  0  0  0  0  0  0  0
   12.4329   -4.2159   24.4224 C   0  0  0  0  0  0  0  0  0  0  0  0
    3.4740   -9.0387   16.5022 C   0  0  0  0  0  0  0  0  0  0  0  0
    6.8384   -7.9290   17.5282 N   0  0  0  0  0  0  0  0  0  0  0  0
    9.4126   -5.9853   18.4899 C   0  0  0  0  0  0  0  0  0  0  0  0
    4.2064  -10.3242   18.3302 C   0  0  0  0  0  0  0  0  0  0  0  0
    9.6599   -4.1551   16.4796 N   0  0  0  0  0  0  0  0  0  0  0  0
    7.0644   -6.4612   15.7375 N   0  0  0  0  0  0  0  0  0  0  0  0
    5.3549   -9.6322   18.3190 C   0  0  0  0  0  0  0  0  0  0  0  0
   10.3704   -4.9638   18.6510 C   0  0  0  0  0  0  0  0  0  0  0  0
    5.5935   -8.6419   17.4234 C   0  0  0  0  0  0  0  0  0  0  0  0
   13.0726   -4.6648   23.3394 O   0  0  0  0  0  0  0  0  0  0  0  0
    8.5955   -6.0705   17.3996 C   0  0  0  0  0  0  0  0  0  0  0  0
    4.6223   -8.3832   16.5030 C   0  0  0  0  0  0  0  0  0  0  0  0
   12.4690   -5.2624   19.9024 C   0  0  0  0  0  0  0  0  0  0  0  0
    3.2548   -9.9919   17.4189 C   0  0  0  0  0  0  0  0  0  0  0  0
   12.4767   -4.7393   22.1790 C   0  0  0  0  0  0  0  0  0  0  0  0
    7.8593   -5.3772   15.3569 N   0  0  0  0  0  0  0  0  0  0  0  0
    7.4412   -6.9038   16.9283 C   0  0  0  0  0  0  0  0  0  0  0  0
  1 21  4  0
  1 23  4  0
  2  5  1  0
  2 13  4  0
  2 16  4  0
  3  6  4  0
  3  7  4  0
  4 13  4  0
  4 19  4  0
  4 24  4  0
  6 23  4  0
  7 16  1  0
  7 21  4  0
  8 18  1  0
  9 20  4  0
  9 22  4  0
 10 17  1  0
 10 25  1  0
 11 16  4  0
 11 19  4  0
 12 15  4  0
 12 22  4  0
 14 24  4  0
 14 25  4  0
 15 17  4  0
 17 20  4  0
 18 23  1  0
 19 25  4  0
M  END
$$$$

 Created by Python create_sdf_string function

 25 28  0  0  0  0  0  0  0  0999 V2000
   13.1533   -5.2399   21.0682 C   0  0  0  0  0  0  0  0  0  0  0  0
   10.4729   -4.0295   17.6135 C   0  0  0  0  0  0  0  0  0  0  0  0
   10.4789   -4.3641   20.9564 C   0  0  0  0  0  0  0  0  0  0  0  0
    8.7421   -5.1412   16.3650 C   0  0  0  0  0  0  0  0  0  0  0  0
   11.4353   -2.9204   17.8044 C   0  0  0  0  0  0  0  0  0  0  0  0
   11.1529   -4.3028   22.1277 C   0  0  0  0  0  0  0  0  0  0  0  0
   11.1290   -4.8502   19.8052 C   0  0  0  0  0  0  0  0  0  0  0  0
   12.4329   -4.2159   24.4224 C   0  0  0  0  0  0  0  0  0  0  0  0
    3.4740   -9.0387   16.5022 C   0  0  0  0  0  0  0  0  0  0  0  0
    6.8384   -7.9290   17.5282 N   0  0  0  0  0  0  0  0  0  0  0  0
    9.4126   -5.9853   18.4899 C   0  0  0  0  0  0  0  0  0  0  0  0
    4.2064  -10.3242   18.3302 C   0  0  0  0  0  0  0  0  0  0  0  0
    9.6599   -4.1551   16.4796 N   0  0  0  0  0  0  0  0  0  0  0  0
    7.0644   -6.4612   15.7375 N   0  0  0  0  0  0  0  0  0  0  0  0
    5.3549   -9.6322   18.3190 C   0  0  0  0  0  0  0  0  0  0  0  0
   10.3704   -4.9638   18.6510 C   0  0  0  0  0  0  0  0  0  0  0  0
    5.5935   -8.6419   17.4234 C   0  0  0  0  0  0  0  0  0  0  0  0
   13.0726   -4.6648   23.3394 O   0  0  0  0  0  0  0  0  0  0  0  0
    8.5955   -6.0705   17.3996 C   0  0  0  0  0  0  0  0  0  0  0  0
    4.6223   -8.3832   16.5030 C   0  0  0  0  0  0  0  0  0  0  0  0
   12.4690   -5.2624   19.9024 C   0  0  0  0  0  0  0  0  0  0  0  0
    3.2548   -9.9919   17.4189 C   0  0  0  0  0  0  0  0  0  0  0  0
   12.4767   -4.7393   22.1790 C   0  0  0  0  0  0  0  0  0  0  0  0
    7.8593   -5.3772   15.3569 N   0  0  0  0  0  0  0  0  0  0  0  0
    7.4412   -6.9038   16.9283 C   0  0  0  0  0  0  0  0  0  0  0  0
  1 21  4  0
  1 23  4  0
  2  5  1  0
  2 13  4  0
  2 16  4  0
  3  6  4  0
  3  7  4  0
  4 13  4  0
  4 19  4  0
  4 24  4  0
  6 23  4  0
  7 16  1  0
  7 21  4  0
  8 18  1  0
  9 20  4  0
  9 22  4  0
 10 17  1  0
 10 25  1  0
 11 16  4  0
 11 19  4  0
 12 15  4  0
 12 22  4  0
 14 24  4  0
 14 25  4  0
 15 17  4  0
 17 20  4  0
 18 23  1  0
 19 25  4  0
M  END
$$$$

 Created by Python create_sdf_string function

 25 28  0  0  0  0  0  0  0  0999 V2000
   13.1533   -5.2399   21.0682 C   0  0  0  0  0  0  0  0  0  0  0  0
   10.4729   -4.0295   17.6135 C   0  0  0  0  0  0  0  0  0  0  0  0
   10.4789   -4.3641   20.9564 C   0  0  0  0  0  0  0  0  0  0  0  0
    8.7421   -5.1412   16.3650 C   0  0  0  0  0  0  0  0  0  0  0  0
   11.4353   -2.9204   17.8044 C   0  0  0  0  0  0  0  0  0  0  0  0
   11.1529   -4.3028   22.1277 C   0  0  0  0  0  0  0  0  0  0  0  0
   11.1290   -4.8502   19.8052 C   0  0  0  0  0  0  0  0  0  0  0  0
   12.4329   -4.2159   24.4224 C   0  0  0  0  0  0  0  0  0  0  0  0
    3.4740   -9.0387   16.5022 C   0  0  0  0  0  0  0  0  0  0  0  0
    6.8384   -7.9290   17.5282 N   0  0  0  0  0  0  0  0  0  0  0  0
    9.4126   -5.9853   18.4899 C   0  0  0  0  0  0  0  0  0  0  0  0
    4.2064  -10.3242   18.3302 C   0  0  0  0  0  0  0  0  0  0  0  0
    9.6599   -4.1551   16.4796 N   0  0  0  0  0  0  0  0  0  0  0  0
    7.0644   -6.4612   15.7375 N   0  0  0  0  0  0  0  0  0  0  0  0
    5.3549   -9.6322   18.3190 C   0  0  0  0  0  0  0  0  0  0  0  0
   10.3704   -4.9638   18.6510 C   0  0  0  0  0  0  0  0  0  0  0  0
    5.5935   -8.6419   17.4234 C   0  0  0  0  0  0  0  0  0  0  0  0
   13.0726   -4.6648   23.3394 O   0  0  0  0  0  0  0  0  0  0  0  0
    8.5955   -6.0705   17.3996 C   0  0  0  0  0  0  0  0  0  0  0  0
    4.6223   -8.3832   16.5030 C   0  0  0  0  0  0  0  0  0  0  0  0
   12.4690   -5.2624   19.9024 C   0  0  0  0  0  0  0  0  0  0  0  0
    3.2548   -9.9919   17.4189 C   0  0  0  0  0  0  0  0  0  0  0  0
   12.4767   -4.7393   22.1790 C   0  0  0  0  0  0  0  0  0  0  0  0
    7.8593   -5.3772   15.3569 N   0  0  0  0  0  0  0  0  0  0  0  0
    7.4412   -6.9038   16.9283 C   0  0  0  0  0  0  0  0  0  0  0  0
  1 21  4  0
  1 23  4  0
  2  5  1  0
  2 13  4  0
  2 16  4  0
  3  6  4  0
  3  7  4  0
  4 13  4  0
  4 19  4  0
  4 24  4  0
  6 23  4  0
  7 16  1  0
  7 21  4  0
  8 18  1  0
  9 20  4  0
  9 22  4  0
 10 17  1  0
 10 25  1  0
 11 16  4  0
 11 19  4  0
 12 15  4  0
 12 22  4  0
 14 24  4  0
 14 25  4  0
 15 17  4  0
 17 20  4  0
 18 23  1  0
 19 25  4  0
M  END
$$$$

 Created by Python create_sdf_string function

 25 28  0  0  0  0  0  0  0  0999 V2000
   13.1533   -5.2399   21.0682 C   0  0  0  0  0  0  0  0  0  0  0  0
   10.4729   -4.0295   17.6135 C   0  0  0  0  0  0  0  0  0  0  0  0
   10.4789   -4.3641   20.9564 C   0  0  0  0  0  0  0  0  0  0  0  0
    8.7421   -5.1412   16.3650 C   0  0  0  0  0  0  0  0  0  0  0  0
   11.4353   -2.9204   17.8044 C   0  0  0  0  0  0  0  0  0  0  0  0
   11.1529   -4.3028   22.1277 C   0  0  0  0  0  0  0  0  0  0  0  0
   11.1290   -4.8502   19.8052 C   0  0  0  0  0  0  0  0  0  0  0  0
   12.4329   -4.2159   24.4224 C   0  0  0  0  0  0  0  0  0  0  0  0
    3.4740   -9.0387   16.5022 C   0  0  0  0  0  0  0  0  0  0  0  0
    6.8384   -7.9290   17.5282 N   0  0  0  0  0  0  0  0  0  0  0  0
    9.4126   -5.9853   18.4899 C   0  0  0  0  0  0  0  0  0  0  0  0
    4.2064  -10.3242   18.3302 C   0  0  0  0  0  0  0  0  0  0  0  0
    9.6599   -4.1551   16.4796 N   0  0  0  0  0  0  0  0  0  0  0  0
    7.0644   -6.4612   15.7375 N   0  0  0  0  0  0  0  0  0  0  0  0
    5.3549   -9.6322   18.3190 C   0  0  0  0  0  0  0  0  0  0  0  0
   10.3704   -4.9638   18.6510 C   0  0  0  0  0  0  0  0  0  0  0  0
    5.5935   -8.6419   17.4234 C   0  0  0  0  0  0  0  0  0  0  0  0
   13.0726   -4.6648   23.3394 O   0  0  0  0  0  0  0  0  0  0  0  0
    8.5955   -6.0705   17.3996 C   0  0  0  0  0  0  0  0  0  0  0  0
    4.6223   -8.3832   16.5030 C   0  0  0  0  0  0  0  0  0  0  0  0
   12.4690   -5.2624   19.9024 C   0  0  0  0  0  0  0  0  0  0  0  0
    3.2548   -9.9919   17.4189 C   0  0  0  0  0  0  0  0  0  0  0  0
   12.4767   -4.7393   22.1790 C   0  0  0  0  0  0  0  0  0  0  0  0
    7.8593   -5.3772   15.3569 N   0  0  0  0  0  0  0  0  0  0  0  0
    7.4412   -6.9038   16.9283 C   0  0  0  0  0  0  0  0  0  0  0  0
  1 21  4  0
  1 23  4  0
  2  5  1  0
  2 13  4  0
  2 16  4  0
  3  6  4  0
  3  7  4  0
  4 13  4  0
  4 19  4  0
  4 24  4  0
  6 23  4  0
  7 16  1  0
  7 21  4  0
  8 18  1  0
  9 20  4  0
  9 22  4  0
 10 17  1  0
 10 25  1  0
 11 16  4  0
 11 19  4  0
 12 15  4  0
 12 22  4  0
 14 24  4  0
 14 25  4  0
 15 17  4  0
 17 20  4  0
 18 23  1  0
 19 25  4  0
M  END
$$$$

 Created by Python create_sdf_string function

 25 28  0  0  0  0  0  0  0  0999 V2000
   13.1533   -5.2399   21.0682 C   0  0  0  0  0  0  0  0  0  0  0  0
   10.4729   -4.0295   17.6135 C   0  0  0  0  0  0  0  0  0  0  0  0
   10.4789   -4.3641   20.9564 C   0  0  0  0  0  0  0  0  0  0  0  0
    8.7421   -5.1412   16.3650 C   0  0  0  0  0  0  0  0  0  0  0  0
   11.4353   -2.9204   17.8044 C   0  0  0  0  0  0  0  0  0  0  0  0
   11.1529   -4.3028   22.1277 C   0  0  0  0  0  0  0  0  0  0  0  0
   11.1290   -4.8502   19.8052 C   0  0  0  0  0  0  0  0  0  0  0  0
   12.4329   -4.2159   24.4224 C   0  0  0  0  0  0  0  0  0  0  0  0
    3.4740   -9.0387   16.5022 C   0  0  0  0  0  0  0  0  0  0  0  0
    6.8384   -7.9290   17.5282 N   0  0  0  0  0  0  0  0  0  0  0  0
    9.4126   -5.9853   18.4899 C   0  0  0  0  0  0  0  0  0  0  0  0
    4.2064  -10.3242   18.3302 C   0  0  0  0  0  0  0  0  0  0  0  0
    9.6599   -4.1551   16.4796 N   0  0  0  0  0  0  0  0  0  0  0  0
    7.0644   -6.4612   15.7375 N   0  0  0  0  0  0  0  0  0  0  0  0
    5.3549   -9.6322   18.3190 C   0  0  0  0  0  0  0  0  0  0  0  0
   10.3704   -4.9638   18.6510 C   0  0  0  0  0  0  0  0  0  0  0  0
    5.5935   -8.6419   17.4234 C   0  0  0  0  0  0  0  0  0  0  0  0
   13.0726   -4.6648   23.3394 O   0  0  0  0  0  0  0  0  0  0  0  0
    8.5955   -6.0705   17.3996 C   0  0  0  0  0  0  0  0  0  0  0  0
    4.6223   -8.3832   16.5030 C   0  0  0  0  0  0  0  0  0  0  0  0
   12.4690   -5.2624   19.9024 C   0  0  0  0  0  0  0  0  0  0  0  0
    3.2548   -9.9919   17.4189 C   0  0  0  0  0  0  0  0  0  0  0  0
   12.4767   -4.7393   22.1790 C   0  0  0  0  0  0  0  0  0  0  0  0
    7.8593   -5.3772   15.3569 N   0  0  0  0  0  0  0  0  0  0  0  0
    7.4412   -6.9038   16.9283 C   0  0  0  0  0  0  0  0  0  0  0  0
  1 21  4  0
  1 23  4  0
  2  5  1  0
  2 13  4  0
  2 16  4  0
  3  6  4  0
  3  7  4  0
  4 13  4  0
  4 19  4  0
  4 24  4  0
  6 23  4  0
  7 16  1  0
  7 21  4  0
  8 18  1  0
  9 20  4  0
  9 22  4  0
 10 17  1  0
 10 25  1  0
 11 16  4  0
 11 19  4  0
 12 15  4  0
 12 22  4  0
 14 24  4  0
 14 25  4  0
 15 17  4  0
 17 20  4  0
 18 23  1  0
 19 25  4  0
M  END
$$$$

 Created by Python create_sdf_string function

 25 28  0  0  0  0  0  0  0  0999 V2000
   13.1533   -5.2399   21.0682 C   0  0  0  0  0  0  0  0  0  0  0  0
   10.4729   -4.0295   17.6135 C   0  0  0  0  0  0  0  0  0  0  0  0
   10.4789   -4.3641   20.9564 C   0  0  0  0  0  0  0  0  0  0  0  0
    8.7421   -5.1412   16.3650 C   0  0  0  0  0  0  0  0  0  0  0  0
   11.4353   -2.9204   17.8044 C   0  0  0  0  0  0  0  0  0  0  0  0
   11.1529   -4.3028   22.1277 C   0  0  0  0  0  0  0  0  0  0  0  0
   11.1290   -4.8502   19.8052 C   0  0  0  0  0  0  0  0  0  0  0  0
   12.4329   -4.2159   24.4224 C   0  0  0  0  0  0  0  0  0  0  0  0
    3.4740   -9.0387   16.5022 C   0  0  0  0  0  0  0  0  0  0  0  0
    6.8384   -7.9290   17.5282 N   0  0  0  0  0  0  0  0  0  0  0  0
    9.4126   -5.9853   18.4899 C   0  0  0  0  0  0  0  0  0  0  0  0
    4.2064  -10.3242   18.3302 C   0  0  0  0  0  0  0  0  0  0  0  0
    9.6599   -4.1551   16.4796 N   0  0  0  0  0  0  0  0  0  0  0  0
    7.0644   -6.4612   15.7375 N   0  0  0  0  0  0  0  0  0  0  0  0
    5.3549   -9.6322   18.3190 C   0  0  0  0  0  0  0  0  0  0  0  0
   10.3704   -4.9638   18.6510 C   0  0  0  0  0  0  0  0  0  0  0  0
    5.5935   -8.6419   17.4234 C   0  0  0  0  0  0  0  0  0  0  0  0
   13.0726   -4.6648   23.3394 O   0  0  0  0  0  0  0  0  0  0  0  0
    8.5955   -6.0705   17.3996 C   0  0  0  0  0  0  0  0  0  0  0  0
    4.6223   -8.3832   16.5030 C   0  0  0  0  0  0  0  0  0  0  0  0
   12.4690   -5.2624   19.9024 C   0  0  0  0  0  0  0  0  0  0  0  0
    3.2548   -9.9919   17.4189 C   0  0  0  0  0  0  0  0  0  0  0  0
   12.4767   -4.7393   22.1790 C   0  0  0  0  0  0  0  0  0  0  0  0
    7.8593   -5.3772   15.3569 N   0  0  0  0  0  0  0  0  0  0  0  0
    7.4412   -6.9038   16.9283 C   0  0  0  0  0  0  0  0  0  0  0  0
  1 21  4  0
  1 23  4  0
  2  5  1  0
  2 13  4  0
  2 16  4  0
  3  6  4  0
  3  7  4  0
  4 13  4  0
  4 19  4  0
  4 24  4  0
  6 23  4  0
  7 16  1  0
  7 21  4  0
  8 18  1  0
  9 20  4  0
  9 22  4  0
 10 17  1  0
 10 25  1  0
 11 16  4  0
 11 19  4  0
 12 15  4  0
 12 22  4  0
 14 24  4  0
 14 25  4  0
 15 17  4  0
 17 20  4  0
 18 23  1  0
 19 25  4  0
M  END
$$$$

 Created by Python create_sdf_string function

 25 28  0  0  0  0  0  0  0  0999 V2000
   13.1533   -5.2399   21.0682 C   0  0  0  0  0  0  0  0  0  0  0  0
   10.4729   -4.0295   17.6135 C   0  0  0  0  0  0  0  0  0  0  0  0
   10.4789   -4.3641   20.9564 C   0  0  0  0  0  0  0  0  0  0  0  0
    8.7421   -5.1412   16.3650 C   0  0  0  0  0  0  0  0  0  0  0  0
   11.4353   -2.9204   17.8044 C   0  0  0  0  0  0  0  0  0  0  0  0
   11.1529   -4.3028   22.1277 C   0  0  0  0  0  0  0  0  0  0  0  0
   11.1290   -4.8502   19.8052 C   0  0  0  0  0  0  0  0  0  0  0  0
   12.4329   -4.2159   24.4224 C   0  0  0  0  0  0  0  0  0  0  0  0
    3.4740   -9.0387   16.5022 C   0  0  0  0  0  0  0  0  0  0  0  0
    6.8384   -7.9290   17.5282 N   0  0  0  0  0  0  0  0  0  0  0  0
    9.4126   -5.9853   18.4899 C   0  0  0  0  0  0  0  0  0  0  0  0
    4.2064  -10.3242   18.3302 C   0  0  0  0  0  0  0  0  0  0  0  0
    9.6599   -4.1551   16.4796 N   0  0  0  0  0  0  0  0  0  0  0  0
    7.0644   -6.4612   15.7375 N   0  0  0  0  0  0  0  0  0  0  0  0
    5.3549   -9.6322   18.3190 C   0  0  0  0  0  0  0  0  0  0  0  0
   10.3704   -4.9638   18.6510 C   0  0  0  0  0  0  0  0  0  0  0  0
    5.5935   -8.6419   17.4234 C   0  0  0  0  0  0  0  0  0  0  0  0
   13.0726   -4.6648   23.3394 O   0  0  0  0  0  0  0  0  0  0  0  0
    8.5955   -6.0705   17.3996 C   0  0  0  0  0  0  0  0  0  0  0  0
    4.6223   -8.3832   16.5030 C   0  0  0  0  0  0  0  0  0  0  0  0
   12.4690   -5.2624   19.9024 C   0  0  0  0  0  0  0  0  0  0  0  0
    3.2548   -9.9919   17.4189 C   0  0  0  0  0  0  0  0  0  0  0  0
   12.4767   -4.7393   22.1790 C   0  0  0  0  0  0  0  0  0  0  0  0
    7.8593   -5.3772   15.3569 N   0  0  0  0  0  0  0  0  0  0  0  0
    7.4412   -6.9038   16.9283 C   0  0  0  0  0  0  0  0  0  0  0  0
  1 21  4  0
  1 23  4  0
  2  5  1  0
  2 13  4  0
  2 16  4  0
  3  6  4  0
  3  7  4  0
  4 13  4  0
  4 19  4  0
  4 24  4  0
  6 23  4  0
  7 16  1  0
  7 21  4  0
  8 18  1  0
  9 20  4  0
  9 22  4  0
 10 17  1  0
 10 25  1  0
 11 16  4  0
 11 19  4  0
 12 15  4  0
 12 22  4  0
 14 24  4  0
 14 25  4  0
 15 17  4  0
 17 20  4  0
 18 23  1  0
 19 25  4  0
M  END
$$$$

 Created by Python create_sdf_string function

 25 28  0  0  0  0  0  0  0  0999 V2000
   13.1533   -5.2399   21.0682 C   0  0  0  0  0  0  0  0  0  0  0  0
   10.4729   -4.0295   17.6135 C   0  0  0  0  0  0  0  0  0  0  0  0
   10.4789   -4.3641   20.9564 C   0  0  0  0  0  0  0  0  0  0  0  0
    8.7421   -5.1412   16.3650 C   0  0  0  0  0  0  0  0  0  0  0  0
   11.4353   -2.9204   17.8044 C   0  0  0  0  0  0  0  0  0  0  0  0
   11.1529   -4.3028   22.1277 C   0  0  0  0  0  0  0  0  0  0  0  0
   11.1290   -4.8502   19.8052 C   0  0  0  0  0  0  0  0  0  0  0  0
   12.4329   -4.2159   24.4224 C   0  0  0  0  0  0  0  0  0  0  0  0
    3.4740   -9.0387   16.5022 C   0  0  0  0  0  0  0  0  0  0  0  0
    6.8384   -7.9290   17.5282 N   0  0  0  0  0  0  0  0  0  0  0  0
    9.4126   -5.9853   18.4899 C   0  0  0  0  0  0  0  0  0  0  0  0
    4.2064  -10.3242   18.3302 C   0  0  0  0  0  0  0  0  0  0  0  0
    9.6599   -4.1551   16.4796 N   0  0  0  0  0  0  0  0  0  0  0  0
    7.0644   -6.4612   15.7375 N   0  0  0  0  0  0  0  0  0  0  0  0
    5.3549   -9.6322   18.3190 C   0  0  0  0  0  0  0  0  0  0  0  0
   10.3704   -4.9638   18.6510 C   0  0  0  0  0  0  0  0  0  0  0  0
    5.5935   -8.6419   17.4234 C   0  0  0  0  0  0  0  0  0  0  0  0
   13.0726   -4.6648   23.3394 O   0  0  0  0  0  0  0  0  0  0  0  0
    8.5955   -6.0705   17.3996 C   0  0  0  0  0  0  0  0  0  0  0  0
    4.6223   -8.3832   16.5030 C   0  0  0  0  0  0  0  0  0  0  0  0
   12.4690   -5.2624   19.9024 C   0  0  0  0  0  0  0  0  0  0  0  0
    3.2548   -9.9919   17.4189 C   0  0  0  0  0  0  0  0  0  0  0  0
   12.4767   -4.7393   22.1790 C   0  0  0  0  0  0  0  0  0  0  0  0
    7.8593   -5.3772   15.3569 N   0  0  0  0  0  0  0  0  0  0  0  0
    7.4412   -6.9038   16.9283 C   0  0  0  0  0  0  0  0  0  0  0  0
  1 21  4  0
  1 23  4  0
  2  5  1  0
  2 13  4  0
  2 16  4  0
  3  6  4  0
  3  7  4  0
  4 13  4  0
  4 19  4  0
  4 24  4  0
  6 23  4  0
  7 16  1  0
  7 21  4  0
  8 18  1  0
  9 20  4  0
  9 22  4  0
 10 17  1  0
 10 25  1  0
 11 16  4  0
 11 19  4  0
 12 15  4  0
 12 22  4  0
 14 24  4  0
 14 25  4  0
 15 17  4  0
 17 20  4  0
 18 23  1  0
 19 25  4  0
M  END
$$$$

 Created by Python create_sdf_string function

 25 28  0  0  0  0  0  0  0  0999 V2000
   13.1533   -5.2399   21.0682 C   0  0  0  0  0  0  0  0  0  0  0  0
   10.4729   -4.0295   17.6135 C   0  0  0  0  0  0  0  0  0  0  0  0
   10.4789   -4.3641   20.9564 C   0  0  0  0  0  0  0  0  0  0  0  0
    8.7421   -5.1412   16.3650 C   0  0  0  0  0  0  0  0  0  0  0  0
   11.4353   -2.9204   17.8044 C   0  0  0  0  0  0  0  0  0  0  0  0
   11.1529   -4.3028   22.1277 C   0  0  0  0  0  0  0  0  0  0  0  0
   11.1290   -4.8502   19.8052 C   0  0  0  0  0  0  0  0  0  0  0  0
   12.4329   -4.2159   24.4224 C   0  0  0  0  0  0  0  0  0  0  0  0
    3.4740   -9.0387   16.5022 C   0  0  0  0  0  0  0  0  0  0  0  0
    6.8384   -7.9290   17.5282 N   0  0  0  0  0  0  0  0  0  0  0  0
    9.4126   -5.9853   18.4899 C   0  0  0  0  0  0  0  0  0  0  0  0
    4.2064  -10.3242   18.3302 C   0  0  0  0  0  0  0  0  0  0  0  0
    9.6599   -4.1551   16.4796 N   0  0  0  0  0  0  0  0  0  0  0  0
    7.0644   -6.4612   15.7375 N   0  0  0  0  0  0  0  0  0  0  0  0
    5.3549   -9.6322   18.3190 C   0  0  0  0  0  0  0  0  0  0  0  0
   10.3704   -4.9638   18.6510 C   0  0  0  0  0  0  0  0  0  0  0  0
    5.5935   -8.6419   17.4234 C   0  0  0  0  0  0  0  0  0  0  0  0
   13.0726   -4.6648   23.3394 O   0  0  0  0  0  0  0  0  0  0  0  0
    8.5955   -6.0705   17.3996 C   0  0  0  0  0  0  0  0  0  0  0  0
    4.6223   -8.3832   16.5030 C   0  0  0  0  0  0  0  0  0  0  0  0
   12.4690   -5.2624   19.9024 C   0  0  0  0  0  0  0  0  0  0  0  0
    3.2548   -9.9919   17.4189 C   0  0  0  0  0  0  0  0  0  0  0  0
   12.4767   -4.7393   22.1790 C   0  0  0  0  0  0  0  0  0  0  0  0
    7.8593   -5.3772   15.3569 N   0  0  0  0  0  0  0  0  0  0  0  0
    7.4412   -6.9038   16.9283 C   0  0  0  0  0  0  0  0  0  0  0  0
  1 21  4  0
  1 23  4  0
  2  5  1  0
  2 13  4  0
  2 16  4  0
  3  6  4  0
  3  7  4  0
  4 13  4  0
  4 19  4  0
  4 24  4  0
  6 23  4  0
  7 16  1  0
  7 21  4  0
  8 18  1  0
  9 20  4  0
  9 22  4  0
 10 17  1  0
 10 25  1  0
 11 16  4  0
 11 19  4  0
 12 15  4  0
 12 22  4  0
 14 24  4  0
 14 25  4  0
 15 17  4  0
 17 20  4  0
 18 23  1  0
 19 25  4  0
M  END
$$$$

 Created by Python create_sdf_string function

 25 28  0  0  0  0  0  0  0  0999 V2000
   13.1533   -5.2399   21.0682 C   0  0  0  0  0  0  0  0  0  0  0  0
   10.4729   -4.0295   17.6135 C   0  0  0  0  0  0  0  0  0  0  0  0
   10.4789   -4.3641   20.9564 C   0  0  0  0  0  0  0  0  0  0  0  0
    8.7421   -5.1412   16.3650 C   0  0  0  0  0  0  0  0  0  0  0  0
   11.4353   -2.9204   17.8044 C   0  0  0  0  0  0  0  0  0  0  0  0
   11.1529   -4.3028   22.1277 C   0  0  0  0  0  0  0  0  0  0  0  0
   11.1290   -4.8502   19.8052 C   0  0  0  0  0  0  0  0  0  0  0  0
   12.4329   -4.2159   24.4224 C   0  0  0  0  0  0  0  0  0  0  0  0
    3.4740   -9.0387   16.5022 C   0  0  0  0  0  0  0  0  0  0  0  0
    6.8384   -7.9290   17.5282 N   0  0  0  0  0  0  0  0  0  0  0  0
    9.4126   -5.9853   18.4899 C   0  0  0  0  0  0  0  0  0  0  0  0
    4.2064  -10.3242   18.3302 C   0  0  0  0  0  0  0  0  0  0  0  0
    9.6599   -4.1551   16.4796 N   0  0  0  0  0  0  0  0  0  0  0  0
    7.0644   -6.4612   15.7375 N   0  0  0  0  0  0  0  0  0  0  0  0
    5.3549   -9.6322   18.3190 C   0  0  0  0  0  0  0  0  0  0  0  0
   10.3704   -4.9638   18.6510 C   0  0  0  0  0  0  0  0  0  0  0  0
    5.5935   -8.6419   17.4234 C   0  0  0  0  0  0  0  0  0  0  0  0
   13.0726   -4.6648   23.3394 O   0  0  0  0  0  0  0  0  0  0  0  0
    8.5955   -6.0705   17.3996 C   0  0  0  0  0  0  0  0  0  0  0  0
    4.6223   -8.3832   16.5030 C   0  0  0  0  0  0  0  0  0  0  0  0
   12.4690   -5.2624   19.9024 C   0  0  0  0  0  0  0  0  0  0  0  0
    3.2548   -9.9919   17.4189 C   0  0  0  0  0  0  0  0  0  0  0  0
   12.4767   -4.7393   22.1790 C   0  0  0  0  0  0  0  0  0  0  0  0
    7.8593   -5.3772   15.3569 N   0  0  0  0  0  0  0  0  0  0  0  0
    7.4412   -6.9038   16.9283 C   0  0  0  0  0  0  0  0  0  0  0  0
  1 21  4  0
  1 23  4  0
  2  5  1  0
  2 13  4  0
  2 16  4  0
  3  6  4  0
  3  7  4  0
  4 13  4  0
  4 19  4  0
  4 24  4  0
  6 23  4  0
  7 16  1  0
  7 21  4  0
  8 18  1  0
  9 20  4  0
  9 22  4  0
 10 17  1  0
 10 25  1  0
 11 16  4  0
 11 19  4  0
 12 15  4  0
 12 22  4  0
 14 24  4  0
 14 25  4  0
 15 17  4  0
 17 20  4  0
 18 23  1  0
 19 25  4  0
M  END
$$$$

 Created by Python create_sdf_string function

 25 28  0  0  0  0  0  0  0  0999 V2000
   13.1533   -5.2399   21.0682 C   0  0  0  0  0  0  0  0  0  0  0  0
   10.4729   -4.0295   17.6135 C   0  0  0  0  0  0  0  0  0  0  0  0
   10.4789   -4.3641   20.9564 C   0  0  0  0  0  0  0  0  0  0  0  0
    8.7421   -5.1412   16.3650 C   0  0  0  0  0  0  0  0  0  0  0  0
   11.4353   -2.9204   17.8044 C   0  0  0  0  0  0  0  0  0  0  0  0
   11.1529   -4.3028   22.1277 C   0  0  0  0  0  0  0  0  0  0  0  0
   11.1290   -4.8502   19.8052 C   0  0  0  0  0  0  0  0  0  0  0  0
   12.4329   -4.2159   24.4224 C   0  0  0  0  0  0  0  0  0  0  0  0
    3.4740   -9.0387   16.5022 C   0  0  0  0  0  0  0  0  0  0  0  0
    6.8384   -7.9290   17.5282 N   0  0  0  0  0  0  0  0  0  0  0  0
    9.4126   -5.9853   18.4899 C   0  0  0  0  0  0  0  0  0  0  0  0
    4.2064  -10.3242   18.3302 C   0  0  0  0  0  0  0  0  0  0  0  0
    9.6599   -4.1551   16.4796 N   0  0  0  0  0  0  0  0  0  0  0  0
    7.0644   -6.4612   15.7375 N   0  0  0  0  0  0  0  0  0  0  0  0
    5.3549   -9.6322   18.3190 C   0  0  0  0  0  0  0  0  0  0  0  0
   10.3704   -4.9638   18.6510 C   0  0  0  0  0  0  0  0  0  0  0  0
    5.5935   -8.6419   17.4234 C   0  0  0  0  0  0  0  0  0  0  0  0
   13.0726   -4.6648   23.3394 O   0  0  0  0  0  0  0  0  0  0  0  0
    8.5955   -6.0705   17.3996 C   0  0  0  0  0  0  0  0  0  0  0  0
    4.6223   -8.3832   16.5030 C   0  0  0  0  0  0  0  0  0  0  0  0
   12.4690   -5.2624   19.9024 C   0  0  0  0  0  0  0  0  0  0  0  0
    3.2548   -9.9919   17.4189 C   0  0  0  0  0  0  0  0  0  0  0  0
   12.4767   -4.7393   22.1790 C   0  0  0  0  0  0  0  0  0  0  0  0
    7.8593   -5.3772   15.3569 N   0  0  0  0  0  0  0  0  0  0  0  0
    7.4412   -6.9038   16.9283 C   0  0  0  0  0  0  0  0  0  0  0  0
  1 21  4  0
  1 23  4  0
  2  5  1  0
  2 13  4  0
  2 16  4  0
  3  6  4  0
  3  7  4  0
  4 13  4  0
  4 19  4  0
  4 24  4  0
  6 23  4  0
  7 16  1  0
  7 21  4  0
  8 18  1  0
  9 20  4  0
  9 22  4  0
 10 17  1  0
 10 25  1  0
 11 16  4  0
 11 19  4  0
 12 15  4  0
 12 22  4  0
 14 24  4  0
 14 25  4  0
 15 17  4  0
 17 20  4  0
 18 23  1  0
 19 25  4  0
M  END
$$$$

 Created by Python create_sdf_string function

 25 28  0  0  0  0  0  0  0  0999 V2000
   13.1533   -5.2399   21.0682 C   0  0  0  0  0  0  0  0  0  0  0  0
   10.4729   -4.0295   17.6135 C   0  0  0  0  0  0  0  0  0  0  0  0
   10.4789   -4.3641   20.9564 C   0  0  0  0  0  0  0  0  0  0  0  0
    8.7421   -5.1412   16.3650 C   0  0  0  0  0  0  0  0  0  0  0  0
   11.4353   -2.9204   17.8044 C   0  0  0  0  0  0  0  0  0  0  0  0
   11.1529   -4.3028   22.1277 C   0  0  0  0  0  0  0  0  0  0  0  0
   11.1290   -4.8502   19.8052 C   0  0  0  0  0  0  0  0  0  0  0  0
   12.4329   -4.2159   24.4224 C   0  0  0  0  0  0  0  0  0  0  0  0
    3.4740   -9.0387   16.5022 C   0  0  0  0  0  0  0  0  0  0  0  0
    6.8384   -7.9290   17.5282 N   0  0  0  0  0  0  0  0  0  0  0  0
    9.4126   -5.9853   18.4899 C   0  0  0  0  0  0  0  0  0  0  0  0
    4.2064  -10.3242   18.3302 C   0  0  0  0  0  0  0  0  0  0  0  0
    9.6599   -4.1551   16.4796 N   0  0  0  0  0  0  0  0  0  0  0  0
    7.0644   -6.4612   15.7375 N   0  0  0  0  0  0  0  0  0  0  0  0
    5.3549   -9.6322   18.3190 C   0  0  0  0  0  0  0  0  0  0  0  0
   10.3704   -4.9638   18.6510 C   0  0  0  0  0  0  0  0  0  0  0  0
    5.5935   -8.6419   17.4234 C   0  0  0  0  0  0  0  0  0  0  0  0
   13.0726   -4.6648   23.3394 O   0  0  0  0  0  0  0  0  0  0  0  0
    8.5955   -6.0705   17.3996 C   0  0  0  0  0  0  0  0  0  0  0  0
    4.6223   -8.3832   16.5030 C   0  0  0  0  0  0  0  0  0  0  0  0
   12.4690   -5.2624   19.9024 C   0  0  0  0  0  0  0  0  0  0  0  0
    3.2548   -9.9919   17.4189 C   0  0  0  0  0  0  0  0  0  0  0  0
   12.4767   -4.7393   22.1790 C   0  0  0  0  0  0  0  0  0  0  0  0
    7.8593   -5.3772   15.3569 N   0  0  0  0  0  0  0  0  0  0  0  0
    7.4412   -6.9038   16.9283 C   0  0  0  0  0  0  0  0  0  0  0  0
  1 21  4  0
  1 23  4  0
  2  5  1  0
  2 13  4  0
  2 16  4  0
  3  6  4  0
  3  7  4  0
  4 13  4  0
  4 19  4  0
  4 24  4  0
  6 23  4  0
  7 16  1  0
  7 21  4  0
  8 18  1  0
  9 20  4  0
  9 22  4  0
 10 17  1  0
 10 25  1  0
 11 16  4  0
 11 19  4  0
 12 15  4  0
 12 22  4  0
 14 24  4  0
 14 25  4  0
 15 17  4  0
 17 20  4  0
 18 23  1  0
 19 25  4  0
M  END
$$$$

 Created by Python create_sdf_string function

 25 28  0  0  0  0  0  0  0  0999 V2000
   13.1533   -5.2399   21.0682 C   0  0  0  0  0  0  0  0  0  0  0  0
   10.4729   -4.0295   17.6135 C   0  0  0  0  0  0  0  0  0  0  0  0
   10.4789   -4.3641   20.9564 C   0  0  0  0  0  0  0  0  0  0  0  0
    8.7421   -5.1412   16.3650 C   0  0  0  0  0  0  0  0  0  0  0  0
   11.4353   -2.9204   17.8044 C   0  0  0  0  0  0  0  0  0  0  0  0
   11.1529   -4.3028   22.1277 C   0  0  0  0  0  0  0  0  0  0  0  0
   11.1290   -4.8502   19.8052 C   0  0  0  0  0  0  0  0  0  0  0  0
   12.4329   -4.2159   24.4224 C   0  0  0  0  0  0  0  0  0  0  0  0
    3.4740   -9.0387   16.5022 C   0  0  0  0  0  0  0  0  0  0  0  0
    6.8384   -7.9290   17.5282 N   0  0  0  0  0  0  0  0  0  0  0  0
    9.4126   -5.9853   18.4899 C   0  0  0  0  0  0  0  0  0  0  0  0
    4.2064  -10.3242   18.3302 C   0  0  0  0  0  0  0  0  0  0  0  0
    9.6599   -4.1551   16.4796 N   0  0  0  0  0  0  0  0  0  0  0  0
    7.0644   -6.4612   15.7375 N   0  0  0  0  0  0  0  0  0  0  0  0
    5.3549   -9.6322   18.3190 C   0  0  0  0  0  0  0  0  0  0  0  0
   10.3704   -4.9638   18.6510 C   0  0  0  0  0  0  0  0  0  0  0  0
    5.5935   -8.6419   17.4234 C   0  0  0  0  0  0  0  0  0  0  0  0
   13.0726   -4.6648   23.3394 O   0  0  0  0  0  0  0  0  0  0  0  0
    8.5955   -6.0705   17.3996 C   0  0  0  0  0  0  0  0  0  0  0  0
    4.6223   -8.3832   16.5030 C   0  0  0  0  0  0  0  0  0  0  0  0
   12.4690   -5.2624   19.9024 C   0  0  0  0  0  0  0  0  0  0  0  0
    3.2548   -9.9919   17.4189 C   0  0  0  0  0  0  0  0  0  0  0  0
   12.4767   -4.7393   22.1790 C   0  0  0  0  0  0  0  0  0  0  0  0
    7.8593   -5.3772   15.3569 N   0  0  0  0  0  0  0  0  0  0  0  0
    7.4412   -6.9038   16.9283 C   0  0  0  0  0  0  0  0  0  0  0  0
  1 21  4  0
  1 23  4  0
  2  5  1  0
  2 13  4  0
  2 16  4  0
  3  6  4  0
  3  7  4  0
  4 13  4  0
  4 19  4  0
  4 24  4  0
  6 23  4  0
  7 16  1  0
  7 21  4  0
  8 18  1  0
  9 20  4  0
  9 22  4  0
 10 17  1  0
 10 25  1  0
 11 16  4  0
 11 19  4  0
 12 15  4  0
 12 22  4  0
 14 24  4  0
 14 25  4  0
 15 17  4  0
 17 20  4  0
 18 23  1  0
 19 25  4  0
M  END
$$$$

 Created by Python create_sdf_string function

 25 28  0  0  0  0  0  0  0  0999 V2000
   13.1533   -5.2399   21.0682 C   0  0  0  0  0  0  0  0  0  0  0  0
   10.4729   -4.0295   17.6135 C   0  0  0  0  0  0  0  0  0  0  0  0
   10.4789   -4.3641   20.9564 C   0  0  0  0  0  0  0  0  0  0  0  0
    8.7421   -5.1412   16.3650 C   0  0  0  0  0  0  0  0  0  0  0  0
   11.4353   -2.9204   17.8044 C   0  0  0  0  0  0  0  0  0  0  0  0
   11.1529   -4.3028   22.1277 C   0  0  0  0  0  0  0  0  0  0  0  0
   11.1290   -4.8502   19.8052 C   0  0  0  0  0  0  0  0  0  0  0  0
   12.4329   -4.2159   24.4224 C   0  0  0  0  0  0  0  0  0  0  0  0
    3.4740   -9.0387   16.5022 C   0  0  0  0  0  0  0  0  0  0  0  0
    6.8384   -7.9290   17.5282 N   0  0  0  0  0  0  0  0  0  0  0  0
    9.4126   -5.9853   18.4899 C   0  0  0  0  0  0  0  0  0  0  0  0
    4.2064  -10.3242   18.3302 C   0  0  0  0  0  0  0  0  0  0  0  0
    9.6599   -4.1551   16.4796 N   0  0  0  0  0  0  0  0  0  0  0  0
    7.0644   -6.4612   15.7375 N   0  0  0  0  0  0  0  0  0  0  0  0
    5.3549   -9.6322   18.3190 C   0  0  0  0  0  0  0  0  0  0  0  0
   10.3704   -4.9638   18.6510 C   0  0  0  0  0  0  0  0  0  0  0  0
    5.5935   -8.6419   17.4234 C   0  0  0  0  0  0  0  0  0  0  0  0
   13.0726   -4.6648   23.3394 O   0  0  0  0  0  0  0  0  0  0  0  0
    8.5955   -6.0705   17.3996 C   0  0  0  0  0  0  0  0  0  0  0  0
    4.6223   -8.3832   16.5030 C   0  0  0  0  0  0  0  0  0  0  0  0
   12.4690   -5.2624   19.9024 C   0  0  0  0  0  0  0  0  0  0  0  0
    3.2548   -9.9919   17.4189 C   0  0  0  0  0  0  0  0  0  0  0  0
   12.4767   -4.7393   22.1790 C   0  0  0  0  0  0  0  0  0  0  0  0
    7.8593   -5.3772   15.3569 N   0  0  0  0  0  0  0  0  0  0  0  0
    7.4412   -6.9038   16.9283 C   0  0  0  0  0  0  0  0  0  0  0  0
  1 21  4  0
  1 23  4  0
  2  5  1  0
  2 13  4  0
  2 16  4  0
  3  6  4  0
  3  7  4  0
  4 13  4  0
  4 19  4  0
  4 24  4  0
  6 23  4  0
  7 16  1  0
  7 21  4  0
  8 18  1  0
  9 20  4  0
  9 22  4  0
 10 17  1  0
 10 25  1  0
 11 16  4  0
 11 19  4  0
 12 15  4  0
 12 22  4  0
 14 24  4  0
 14 25  4  0
 15 17  4  0
 17 20  4  0
 18 23  1  0
 19 25  4  0
M  END
$$$$

 Created by Python create_sdf_string function

 25 28  0  0  0  0  0  0  0  0999 V2000
   13.1533   -5.2399   21.0682 C   0  0  0  0  0  0  0  0  0  0  0  0
   10.4729   -4.0295   17.6135 C   0  0  0  0  0  0  0  0  0  0  0  0
   10.4789   -4.3641   20.9564 C   0  0  0  0  0  0  0  0  0  0  0  0
    8.7421   -5.1412   16.3650 C   0  0  0  0  0  0  0  0  0  0  0  0
   11.4353   -2.9204   17.8044 C   0  0  0  0  0  0  0  0  0  0  0  0
   11.1529   -4.3028   22.1277 C   0  0  0  0  0  0  0  0  0  0  0  0
   11.1290   -4.8502   19.8052 C   0  0  0  0  0  0  0  0  0  0  0  0
   12.4329   -4.2159   24.4224 C   0  0  0  0  0  0  0  0  0  0  0  0
    3.4740   -9.0387   16.5022 C   0  0  0  0  0  0  0  0  0  0  0  0
    6.8384   -7.9290   17.5282 N   0  0  0  0  0  0  0  0  0  0  0  0
    9.4126   -5.9853   18.4899 C   0  0  0  0  0  0  0  0  0  0  0  0
    4.2064  -10.3242   18.3302 C   0  0  0  0  0  0  0  0  0  0  0  0
    9.6599   -4.1551   16.4796 N   0  0  0  0  0  0  0  0  0  0  0  0
    7.0644   -6.4612   15.7375 N   0  0  0  0  0  0  0  0  0  0  0  0
    5.3549   -9.6322   18.3190 C   0  0  0  0  0  0  0  0  0  0  0  0
   10.3704   -4.9638   18.6510 C   0  0  0  0  0  0  0  0  0  0  0  0
    5.5935   -8.6419   17.4234 C   0  0  0  0  0  0  0  0  0  0  0  0
   13.0726   -4.6648   23.3394 O   0  0  0  0  0  0  0  0  0  0  0  0
    8.5955   -6.0705   17.3996 C   0  0  0  0  0  0  0  0  0  0  0  0
    4.6223   -8.3832   16.5030 C   0  0  0  0  0  0  0  0  0  0  0  0
   12.4690   -5.2624   19.9024 C   0  0  0  0  0  0  0  0  0  0  0  0
    3.2548   -9.9919   17.4189 C   0  0  0  0  0  0  0  0  0  0  0  0
   12.4767   -4.7393   22.1790 C   0  0  0  0  0  0  0  0  0  0  0  0
    7.8593   -5.3772   15.3569 N   0  0  0  0  0  0  0  0  0  0  0  0
    7.4412   -6.9038   16.9283 C   0  0  0  0  0  0  0  0  0  0  0  0
  1 21  4  0
  1 23  4  0
  2  5  1  0
  2 13  4  0
  2 16  4  0
  3  6  4  0
  3  7  4  0
  4 13  4  0
  4 19  4  0
  4 24  4  0
  6 23  4  0
  7 16  1  0
  7 21  4  0
  8 18  1  0
  9 20  4  0
  9 22  4  0
 10 17  1  0
 10 25  1  0
 11 16  4  0
 11 19  4  0
 12 15  4  0
 12 22  4  0
 14 24  4  0
 14 25  4  0
 15 17  4  0
 17 20  4  0
 18 23  1  0
 19 25  4  0
M  END
$$$$

 Created by Python create_sdf_string function

 25 28  0  0  0  0  0  0  0  0999 V2000
   13.1533   -5.2399   21.0682 C   0  0  0  0  0  0  0  0  0  0  0  0
   10.4729   -4.0295   17.6135 C   0  0  0  0  0  0  0  0  0  0  0  0
   10.4789   -4.3641   20.9564 C   0  0  0  0  0  0  0  0  0  0  0  0
    8.7421   -5.1412   16.3650 C   0  0  0  0  0  0  0  0  0  0  0  0
   11.4353   -2.9204   17.8044 C   0  0  0  0  0  0  0  0  0  0  0  0
   11.1529   -4.3028   22.1277 C   0  0  0  0  0  0  0  0  0  0  0  0
   11.1290   -4.8502   19.8052 C   0  0  0  0  0  0  0  0  0  0  0  0
   12.4329   -4.2159   24.4224 C   0  0  0  0  0  0  0  0  0  0  0  0
    3.4740   -9.0387   16.5022 C   0  0  0  0  0  0  0  0  0  0  0  0
    6.8384   -7.9290   17.5282 N   0  0  0  0  0  0  0  0  0  0  0  0
    9.4126   -5.9853   18.4899 C   0  0  0  0  0  0  0  0  0  0  0  0
    4.2064  -10.3242   18.3302 C   0  0  0  0  0  0  0  0  0  0  0  0
    9.6599   -4.1551   16.4796 N   0  0  0  0  0  0  0  0  0  0  0  0
    7.0644   -6.4612   15.7375 N   0  0  0  0  0  0  0  0  0  0  0  0
    5.3549   -9.6322   18.3190 C   0  0  0  0  0  0  0  0  0  0  0  0
   10.3704   -4.9638   18.6510 C   0  0  0  0  0  0  0  0  0  0  0  0
    5.5935   -8.6419   17.4234 C   0  0  0  0  0  0  0  0  0  0  0  0
   13.0726   -4.6648   23.3394 O   0  0  0  0  0  0  0  0  0  0  0  0
    8.5955   -6.0705   17.3996 C   0  0  0  0  0  0  0  0  0  0  0  0
    4.6223   -8.3832   16.5030 C   0  0  0  0  0  0  0  0  0  0  0  0
   12.4690   -5.2624   19.9024 C   0  0  0  0  0  0  0  0  0  0  0  0
    3.2548   -9.9919   17.4189 C   0  0  0  0  0  0  0  0  0  0  0  0
   12.4767   -4.7393   22.1790 C   0  0  0  0  0  0  0  0  0  0  0  0
    7.8593   -5.3772   15.3569 N   0  0  0  0  0  0  0  0  0  0  0  0
    7.4412   -6.9038   16.9283 C   0  0  0  0  0  0  0  0  0  0  0  0
  1 21  4  0
  1 23  4  0
  2  5  1  0
  2 13  4  0
  2 16  4  0
  3  6  4  0
  3  7  4  0
  4 13  4  0
  4 19  4  0
  4 24  4  0
  6 23  4  0
  7 16  1  0
  7 21  4  0
  8 18  1  0
  9 20  4  0
  9 22  4  0
 10 17  1  0
 10 25  1  0
 11 16  4  0
 11 19  4  0
 12 15  4  0
 12 22  4  0
 14 24  4  0
 14 25  4  0
 15 17  4  0
 17 20  4  0
 18 23  1  0
 19 25  4  0
M  END
$$$$

 Created by Python create_sdf_string function

 25 28  0  0  0  0  0  0  0  0999 V2000
   13.1533   -5.2399   21.0682 C   0  0  0  0  0  0  0  0  0  0  0  0
   10.4729   -4.0295   17.6135 C   0  0  0  0  0  0  0  0  0  0  0  0
   10.4789   -4.3641   20.9564 C   0  0  0  0  0  0  0  0  0  0  0  0
    8.7421   -5.1412   16.3650 C   0  0  0  0  0  0  0  0  0  0  0  0
   11.4353   -2.9204   17.8044 C   0  0  0  0  0  0  0  0  0  0  0  0
   11.1529   -4.3028   22.1277 C   0  0  0  0  0  0  0  0  0  0  0  0
   11.1290   -4.8502   19.8052 C   0  0  0  0  0  0  0  0  0  0  0  0
   12.4329   -4.2159   24.4224 C   0  0  0  0  0  0  0  0  0  0  0  0
    3.4740   -9.0387   16.5022 C   0  0  0  0  0  0  0  0  0  0  0  0
    6.8384   -7.9290   17.5282 N   0  0  0  0  0  0  0  0  0  0  0  0
    9.4126   -5.9853   18.4899 C   0  0  0  0  0  0  0  0  0  0  0  0
    4.2064  -10.3242   18.3302 C   0  0  0  0  0  0  0  0  0  0  0  0
    9.6599   -4.1551   16.4796 N   0  0  0  0  0  0  0  0  0  0  0  0
    7.0644   -6.4612   15.7375 N   0  0  0  0  0  0  0  0  0  0  0  0
    5.3549   -9.6322   18.3190 C   0  0  0  0  0  0  0  0  0  0  0  0
   10.3704   -4.9638   18.6510 C   0  0  0  0  0  0  0  0  0  0  0  0
    5.5935   -8.6419   17.4234 C   0  0  0  0  0  0  0  0  0  0  0  0
   13.0726   -4.6648   23.3394 O   0  0  0  0  0  0  0  0  0  0  0  0
    8.5955   -6.0705   17.3996 C   0  0  0  0  0  0  0  0  0  0  0  0
    4.6223   -8.3832   16.5030 C   0  0  0  0  0  0  0  0  0  0  0  0
   12.4690   -5.2624   19.9024 C   0  0  0  0  0  0  0  0  0  0  0  0
    3.2548   -9.9919   17.4189 C   0  0  0  0  0  0  0  0  0  0  0  0
   12.4767   -4.7393   22.1790 C   0  0  0  0  0  0  0  0  0  0  0  0
    7.8593   -5.3772   15.3569 N   0  0  0  0  0  0  0  0  0  0  0  0
    7.4412   -6.9038   16.9283 C   0  0  0  0  0  0  0  0  0  0  0  0
  1 21  4  0
  1 23  4  0
  2  5  1  0
  2 13  4  0
  2 16  4  0
  3  6  4  0
  3  7  4  0
  4 13  4  0
  4 19  4  0
  4 24  4  0
  6 23  4  0
  7 16  1  0
  7 21  4  0
  8 18  1  0
  9 20  4  0
  9 22  4  0
 10 17  1  0
 10 25  1  0
 11 16  4  0
 11 19  4  0
 12 15  4  0
 12 22  4  0
 14 24  4  0
 14 25  4  0
 15 17  4  0
 17 20  4  0
 18 23  1  0
 19 25  4  0
M  END
$$$$

 Created by Python create_sdf_string function

 25 28  0  0  0  0  0  0  0  0999 V2000
   13.1533   -5.2399   21.0682 C   0  0  0  0  0  0  0  0  0  0  0  0
   10.4729   -4.0295   17.6135 C   0  0  0  0  0  0  0  0  0  0  0  0
   10.4789   -4.3641   20.9564 C   0  0  0  0  0  0  0  0  0  0  0  0
    8.7421   -5.1412   16.3650 C   0  0  0  0  0  0  0  0  0  0  0  0
   11.4353   -2.9204   17.8044 C   0  0  0  0  0  0  0  0  0  0  0  0
   11.1529   -4.3028   22.1277 C   0  0  0  0  0  0  0  0  0  0  0  0
   11.1290   -4.8502   19.8052 C   0  0  0  0  0  0  0  0  0  0  0  0
   12.4329   -4.2159   24.4224 C   0  0  0  0  0  0  0  0  0  0  0  0
    3.4740   -9.0387   16.5022 C   0  0  0  0  0  0  0  0  0  0  0  0
    6.8384   -7.9290   17.5282 N   0  0  0  0  0  0  0  0  0  0  0  0
    9.4126   -5.9853   18.4899 C   0  0  0  0  0  0  0  0  0  0  0  0
    4.2064  -10.3242   18.3302 C   0  0  0  0  0  0  0  0  0  0  0  0
    9.6599   -4.1551   16.4796 N   0  0  0  0  0  0  0  0  0  0  0  0
    7.0644   -6.4612   15.7375 N   0  0  0  0  0  0  0  0  0  0  0  0
    5.3549   -9.6322   18.3190 C   0  0  0  0  0  0  0  0  0  0  0  0
   10.3704   -4.9638   18.6510 C   0  0  0  0  0  0  0  0  0  0  0  0
    5.5935   -8.6419   17.4234 C   0  0  0  0  0  0  0  0  0  0  0  0
   13.0726   -4.6648   23.3394 O   0  0  0  0  0  0  0  0  0  0  0  0
    8.5955   -6.0705   17.3996 C   0  0  0  0  0  0  0  0  0  0  0  0
    4.6223   -8.3832   16.5030 C   0  0  0  0  0  0  0  0  0  0  0  0
   12.4690   -5.2624   19.9024 C   0  0  0  0  0  0  0  0  0  0  0  0
    3.2548   -9.9919   17.4189 C   0  0  0  0  0  0  0  0  0  0  0  0
   12.4767   -4.7393   22.1790 C   0  0  0  0  0  0  0  0  0  0  0  0
    7.8593   -5.3772   15.3569 N   0  0  0  0  0  0  0  0  0  0  0  0
    7.4412   -6.9038   16.9283 C   0  0  0  0  0  0  0  0  0  0  0  0
  1 21  4  0
  1 23  4  0
  2  5  1  0
  2 13  4  0
  2 16  4  0
  3  6  4  0
  3  7  4  0
  4 13  4  0
  4 19  4  0
  4 24  4  0
  6 23  4  0
  7 16  1  0
  7 21  4  0
  8 18  1  0
  9 20  4  0
  9 22  4  0
 10 17  1  0
 10 25  1  0
 11 16  4  0
 11 19  4  0
 12 15  4  0
 12 22  4  0
 14 24  4  0
 14 25  4  0
 15 17  4  0
 17 20  4  0
 18 23  1  0
 19 25  4  0
M  END
$$$$

 Created by Python create_sdf_string function

 25 28  0  0  0  0  0  0  0  0999 V2000
   13.1533   -5.2399   21.0682 C   0  0  0  0  0  0  0  0  0  0  0  0
   10.4729   -4.0295   17.6135 C   0  0  0  0  0  0  0  0  0  0  0  0
   10.4789   -4.3641   20.9564 C   0  0  0  0  0  0  0  0  0  0  0  0
    8.7421   -5.1412   16.3650 C   0  0  0  0  0  0  0  0  0  0  0  0
   11.4353   -2.9204   17.8044 C   0  0  0  0  0  0  0  0  0  0  0  0
   11.1529   -4.3028   22.1277 C   0  0  0  0  0  0  0  0  0  0  0  0
   11.1290   -4.8502   19.8052 C   0  0  0  0  0  0  0  0  0  0  0  0
   12.4329   -4.2159   24.4224 C   0  0  0  0  0  0  0  0  0  0  0  0
    3.4740   -9.0387   16.5022 C   0  0  0  0  0  0  0  0  0  0  0  0
    6.8384   -7.9290   17.5282 N   0  0  0  0  0  0  0  0  0  0  0  0
    9.4126   -5.9853   18.4899 C   0  0  0  0  0  0  0  0  0  0  0  0
    4.2064  -10.3242   18.3302 C   0  0  0  0  0  0  0  0  0  0  0  0
    9.6599   -4.1551   16.4796 N   0  0  0  0  0  0  0  0  0  0  0  0
    7.0644   -6.4612   15.7375 N   0  0  0  0  0  0  0  0  0  0  0  0
    5.3549   -9.6322   18.3190 C   0  0  0  0  0  0  0  0  0  0  0  0
   10.3704   -4.9638   18.6510 C   0  0  0  0  0  0  0  0  0  0  0  0
    5.5935   -8.6419   17.4234 C   0  0  0  0  0  0  0  0  0  0  0  0
   13.0726   -4.6648   23.3394 O   0  0  0  0  0  0  0  0  0  0  0  0
    8.5955   -6.0705   17.3996 C   0  0  0  0  0  0  0  0  0  0  0  0
    4.6223   -8.3832   16.5030 C   0  0  0  0  0  0  0  0  0  0  0  0
   12.4690   -5.2624   19.9024 C   0  0  0  0  0  0  0  0  0  0  0  0
    3.2548   -9.9919   17.4189 C   0  0  0  0  0  0  0  0  0  0  0  0
   12.4767   -4.7393   22.1790 C   0  0  0  0  0  0  0  0  0  0  0  0
    7.8593   -5.3772   15.3569 N   0  0  0  0  0  0  0  0  0  0  0  0
    7.4412   -6.9038   16.9283 C   0  0  0  0  0  0  0  0  0  0  0  0
  1 21  4  0
  1 23  4  0
  2  5  1  0
  2 13  4  0
  2 16  4  0
  3  6  4  0
  3  7  4  0
  4 13  4  0
  4 19  4  0
  4 24  4  0
  6 23  4  0
  7 16  1  0
  7 21  4  0
  8 18  1  0
  9 20  4  0
  9 22  4  0
 10 17  1  0
 10 25  1  0
 11 16  4  0
 11 19  4  0
 12 15  4  0
 12 22  4  0
 14 24  4  0
 14 25  4  0
 15 17  4  0
 17 20  4  0
 18 23  1  0
 19 25  4  0
M  END
$$$$

 Created by Python create_sdf_string function

 25 28  0  0  0  0  0  0  0  0999 V2000
   13.1533   -5.2399   21.0682 C   0  0  0  0  0  0  0  0  0  0  0  0
   10.4729   -4.0295   17.6135 C   0  0  0  0  0  0  0  0  0  0  0  0
   10.4789   -4.3641   20.9564 C   0  0  0  0  0  0  0  0  0  0  0  0
    8.7421   -5.1412   16.3650 C   0  0  0  0  0  0  0  0  0  0  0  0
   11.4353   -2.9204   17.8044 C   0  0  0  0  0  0  0  0  0  0  0  0
   11.1529   -4.3028   22.1277 C   0  0  0  0  0  0  0  0  0  0  0  0
   11.1290   -4.8502   19.8052 C   0  0  0  0  0  0  0  0  0  0  0  0
   12.4329   -4.2159   24.4224 C   0  0  0  0  0  0  0  0  0  0  0  0
    3.4740   -9.0387   16.5022 C   0  0  0  0  0  0  0  0  0  0  0  0
    6.8384   -7.9290   17.5282 N   0  0  0  0  0  0  0  0  0  0  0  0
    9.4126   -5.9853   18.4899 C   0  0  0  0  0  0  0  0  0  0  0  0
    4.2064  -10.3242   18.3302 C   0  0  0  0  0  0  0  0  0  0  0  0
    9.6599   -4.1551   16.4796 N   0  0  0  0  0  0  0  0  0  0  0  0
    7.0644   -6.4612   15.7375 N   0  0  0  0  0  0  0  0  0  0  0  0
    5.3549   -9.6322   18.3190 C   0  0  0  0  0  0  0  0  0  0  0  0
   10.3704   -4.9638   18.6510 C   0  0  0  0  0  0  0  0  0  0  0  0
    5.5935   -8.6419   17.4234 C   0  0  0  0  0  0  0  0  0  0  0  0
   13.0726   -4.6648   23.3394 O   0  0  0  0  0  0  0  0  0  0  0  0
    8.5955   -6.0705   17.3996 C   0  0  0  0  0  0  0  0  0  0  0  0
    4.6223   -8.3832   16.5030 C   0  0  0  0  0  0  0  0  0  0  0  0
   12.4690   -5.2624   19.9024 C   0  0  0  0  0  0  0  0  0  0  0  0
    3.2548   -9.9919   17.4189 C   0  0  0  0  0  0  0  0  0  0  0  0
   12.4767   -4.7393   22.1790 C   0  0  0  0  0  0  0  0  0  0  0  0
    7.8593   -5.3772   15.3569 N   0  0  0  0  0  0  0  0  0  0  0  0
    7.4412   -6.9038   16.9283 C   0  0  0  0  0  0  0  0  0  0  0  0
  1 21  4  0
  1 23  4  0
  2  5  1  0
  2 13  4  0
  2 16  4  0
  3  6  4  0
  3  7  4  0
  4 13  4  0
  4 19  4  0
  4 24  4  0
  6 23  4  0
  7 16  1  0
  7 21  4  0
  8 18  1  0
  9 20  4  0
  9 22  4  0
 10 17  1  0
 10 25  1  0
 11 16  4  0
 11 19  4  0
 12 15  4  0
 12 22  4  0
 14 24  4  0
 14 25  4  0
 15 17  4  0
 17 20  4  0
 18 23  1  0
 19 25  4  0
M  END
$$$$

 Created by Python create_sdf_string function

 25 28  0  0  0  0  0  0  0  0999 V2000
   13.1533   -5.2399   21.0682 C   0  0  0  0  0  0  0  0  0  0  0  0
   10.4729   -4.0295   17.6135 C   0  0  0  0  0  0  0  0  0  0  0  0
   10.4789   -4.3641   20.9564 C   0  0  0  0  0  0  0  0  0  0  0  0
    8.7421   -5.1412   16.3650 C   0  0  0  0  0  0  0  0  0  0  0  0
   11.4353   -2.9204   17.8044 C   0  0  0  0  0  0  0  0  0  0  0  0
   11.1529   -4.3028   22.1277 C   0  0  0  0  0  0  0  0  0  0  0  0
   11.1290   -4.8502   19.8052 C   0  0  0  0  0  0  0  0  0  0  0  0
   12.4329   -4.2159   24.4224 C   0  0  0  0  0  0  0  0  0  0  0  0
    3.4740   -9.0387   16.5022 C   0  0  0  0  0  0  0  0  0  0  0  0
    6.8384   -7.9290   17.5282 N   0  0  0  0  0  0  0  0  0  0  0  0
    9.4126   -5.9853   18.4899 C   0  0  0  0  0  0  0  0  0  0  0  0
    4.2064  -10.3242   18.3302 C   0  0  0  0  0  0  0  0  0  0  0  0
    9.6599   -4.1551   16.4796 N   0  0  0  0  0  0  0  0  0  0  0  0
    7.0644   -6.4612   15.7375 N   0  0  0  0  0  0  0  0  0  0  0  0
    5.3549   -9.6322   18.3190 C   0  0  0  0  0  0  0  0  0  0  0  0
   10.3704   -4.9638   18.6510 C   0  0  0  0  0  0  0  0  0  0  0  0
    5.5935   -8.6419   17.4234 C   0  0  0  0  0  0  0  0  0  0  0  0
   13.0726   -4.6648   23.3394 O   0  0  0  0  0  0  0  0  0  0  0  0
    8.5955   -6.0705   17.3996 C   0  0  0  0  0  0  0  0  0  0  0  0
    4.6223   -8.3832   16.5030 C   0  0  0  0  0  0  0  0  0  0  0  0
   12.4690   -5.2624   19.9024 C   0  0  0  0  0  0  0  0  0  0  0  0
    3.2548   -9.9919   17.4189 C   0  0  0  0  0  0  0  0  0  0  0  0
   12.4767   -4.7393   22.1790 C   0  0  0  0  0  0  0  0  0  0  0  0
    7.8593   -5.3772   15.3569 N   0  0  0  0  0  0  0  0  0  0  0  0
    7.4412   -6.9038   16.9283 C   0  0  0  0  0  0  0  0  0  0  0  0
  1 21  4  0
  1 23  4  0
  2  5  1  0
  2 13  4  0
  2 16  4  0
  3  6  4  0
  3  7  4  0
  4 13  4  0
  4 19  4  0
  4 24  4  0
  6 23  4  0
  7 16  1  0
  7 21  4  0
  8 18  1  0
  9 20  4  0
  9 22  4  0
 10 17  1  0
 10 25  1  0
 11 16  4  0
 11 19  4  0
 12 15  4  0
 12 22  4  0
 14 24  4  0
 14 25  4  0
 15 17  4  0
 17 20  4  0
 18 23  1  0
 19 25  4  0
M  END
$$$$

 Created by Python create_sdf_string function

 25 28  0  0  0  0  0  0  0  0999 V2000
   13.1533   -5.2399   21.0682 C   0  0  0  0  0  0  0  0  0  0  0  0
   10.4729   -4.0295   17.6135 C   0  0  0  0  0  0  0  0  0  0  0  0
   10.4789   -4.3641   20.9564 C   0  0  0  0  0  0  0  0  0  0  0  0
    8.7421   -5.1412   16.3650 C   0  0  0  0  0  0  0  0  0  0  0  0
   11.4353   -2.9204   17.8044 C   0  0  0  0  0  0  0  0  0  0  0  0
   11.1529   -4.3028   22.1277 C   0  0  0  0  0  0  0  0  0  0  0  0
   11.1290   -4.8502   19.8052 C   0  0  0  0  0  0  0  0  0  0  0  0
   12.4329   -4.2159   24.4224 C   0  0  0  0  0  0  0  0  0  0  0  0
    3.4740   -9.0387   16.5022 C   0  0  0  0  0  0  0  0  0  0  0  0
    6.8384   -7.9290   17.5282 N   0  0  0  0  0  0  0  0  0  0  0  0
    9.4126   -5.9853   18.4899 C   0  0  0  0  0  0  0  0  0  0  0  0
    4.2064  -10.3242   18.3302 C   0  0  0  0  0  0  0  0  0  0  0  0
    9.6599   -4.1551   16.4796 N   0  0  0  0  0  0  0  0  0  0  0  0
    7.0644   -6.4612   15.7375 N   0  0  0  0  0  0  0  0  0  0  0  0
    5.3549   -9.6322   18.3190 C   0  0  0  0  0  0  0  0  0  0  0  0
   10.3704   -4.9638   18.6510 C   0  0  0  0  0  0  0  0  0  0  0  0
    5.5935   -8.6419   17.4234 C   0  0  0  0  0  0  0  0  0  0  0  0
   13.0726   -4.6648   23.3394 O   0  0  0  0  0  0  0  0  0  0  0  0
    8.5955   -6.0705   17.3996 C   0  0  0  0  0  0  0  0  0  0  0  0
    4.6223   -8.3832   16.5030 C   0  0  0  0  0  0  0  0  0  0  0  0
   12.4690   -5.2624   19.9024 C   0  0  0  0  0  0  0  0  0  0  0  0
    3.2548   -9.9919   17.4189 C   0  0  0  0  0  0  0  0  0  0  0  0
   12.4767   -4.7393   22.1790 C   0  0  0  0  0  0  0  0  0  0  0  0
    7.8593   -5.3772   15.3569 N   0  0  0  0  0  0  0  0  0  0  0  0
    7.4412   -6.9038   16.9283 C   0  0  0  0  0  0  0  0  0  0  0  0
  1 21  4  0
  1 23  4  0
  2  5  1  0
  2 13  4  0
  2 16  4  0
  3  6  4  0
  3  7  4  0
  4 13  4  0
  4 19  4  0
  4 24  4  0
  6 23  4  0
  7 16  1  0
  7 21  4  0
  8 18  1  0
  9 20  4  0
  9 22  4  0
 10 17  1  0
 10 25  1  0
 11 16  4  0
 11 19  4  0
 12 15  4  0
 12 22  4  0
 14 24  4  0
 14 25  4  0
 15 17  4  0
 17 20  4  0
 18 23  1  0
 19 25  4  0
M  END
$$$$

 Created by Python create_sdf_string function

 25 28  0  0  0  0  0  0  0  0999 V2000
   13.1533   -5.2399   21.0682 C   0  0  0  0  0  0  0  0  0  0  0  0
   10.4729   -4.0295   17.6135 C   0  0  0  0  0  0  0  0  0  0  0  0
   10.4789   -4.3641   20.9564 C   0  0  0  0  0  0  0  0  0  0  0  0
    8.7421   -5.1412   16.3650 C   0  0  0  0  0  0  0  0  0  0  0  0
   11.4353   -2.9204   17.8044 C   0  0  0  0  0  0  0  0  0  0  0  0
   11.1529   -4.3028   22.1277 C   0  0  0  0  0  0  0  0  0  0  0  0
   11.1290   -4.8502   19.8052 C   0  0  0  0  0  0  0  0  0  0  0  0
   12.4329   -4.2159   24.4224 C   0  0  0  0  0  0  0  0  0  0  0  0
    3.4740   -9.0387   16.5022 C   0  0  0  0  0  0  0  0  0  0  0  0
    6.8384   -7.9290   17.5282 N   0  0  0  0  0  0  0  0  0  0  0  0
    9.4126   -5.9853   18.4899 C   0  0  0  0  0  0  0  0  0  0  0  0
    4.2064  -10.3242   18.3302 C   0  0  0  0  0  0  0  0  0  0  0  0
    9.6599   -4.1551   16.4796 N   0  0  0  0  0  0  0  0  0  0  0  0
    7.0644   -6.4612   15.7375 N   0  0  0  0  0  0  0  0  0  0  0  0
    5.3549   -9.6322   18.3190 C   0  0  0  0  0  0  0  0  0  0  0  0
   10.3704   -4.9638   18.6510 C   0  0  0  0  0  0  0  0  0  0  0  0
    5.5935   -8.6419   17.4234 C   0  0  0  0  0  0  0  0  0  0  0  0
   13.0726   -4.6648   23.3394 O   0  0  0  0  0  0  0  0  0  0  0  0
    8.5955   -6.0705   17.3996 C   0  0  0  0  0  0  0  0  0  0  0  0
    4.6223   -8.3832   16.5030 C   0  0  0  0  0  0  0  0  0  0  0  0
   12.4690   -5.2624   19.9024 C   0  0  0  0  0  0  0  0  0  0  0  0
    3.2548   -9.9919   17.4189 C   0  0  0  0  0  0  0  0  0  0  0  0
   12.4767   -4.7393   22.1790 C   0  0  0  0  0  0  0  0  0  0  0  0
    7.8593   -5.3772   15.3569 N   0  0  0  0  0  0  0  0  0  0  0  0
    7.4412   -6.9038   16.9283 C   0  0  0  0  0  0  0  0  0  0  0  0
  1 21  4  0
  1 23  4  0
  2  5  1  0
  2 13  4  0
  2 16  4  0
  3  6  4  0
  3  7  4  0
  4 13  4  0
  4 19  4  0
  4 24  4  0
  6 23  4  0
  7 16  1  0
  7 21  4  0
  8 18  1  0
  9 20  4  0
  9 22  4  0
 10 17  1  0
 10 25  1  0
 11 16  4  0
 11 19  4  0
 12 15  4  0
 12 22  4  0
 14 24  4  0
 14 25  4  0
 15 17  4  0
 17 20  4  0
 18 23  1  0
 19 25  4  0
M  END
$$$$

 Created by Python create_sdf_string function

 25 28  0  0  0  0  0  0  0  0999 V2000
   13.1533   -5.2399   21.0682 C   0  0  0  0  0  0  0  0  0  0  0  0
   10.4729   -4.0295   17.6135 C   0  0  0  0  0  0  0  0  0  0  0  0
   10.4789   -4.3641   20.9564 C   0  0  0  0  0  0  0  0  0  0  0  0
    8.7421   -5.1412   16.3650 C   0  0  0  0  0  0  0  0  0  0  0  0
   11.4353   -2.9204   17.8044 C   0  0  0  0  0  0  0  0  0  0  0  0
   11.1529   -4.3028   22.1277 C   0  0  0  0  0  0  0  0  0  0  0  0
   11.1290   -4.8502   19.8052 C   0  0  0  0  0  0  0  0  0  0  0  0
   12.4329   -4.2159   24.4224 C   0  0  0  0  0  0  0  0  0  0  0  0
    3.4740   -9.0387   16.5022 C   0  0  0  0  0  0  0  0  0  0  0  0
    6.8384   -7.9290   17.5282 N   0  0  0  0  0  0  0  0  0  0  0  0
    9.4126   -5.9853   18.4899 C   0  0  0  0  0  0  0  0  0  0  0  0
    4.2064  -10.3242   18.3302 C   0  0  0  0  0  0  0  0  0  0  0  0
    9.6599   -4.1551   16.4796 N   0  0  0  0  0  0  0  0  0  0  0  0
    7.0644   -6.4612   15.7375 N   0  0  0  0  0  0  0  0  0  0  0  0
    5.3549   -9.6322   18.3190 C   0  0  0  0  0  0  0  0  0  0  0  0
   10.3704   -4.9638   18.6510 C   0  0  0  0  0  0  0  0  0  0  0  0
    5.5935   -8.6419   17.4234 C   0  0  0  0  0  0  0  0  0  0  0  0
   13.0726   -4.6648   23.3394 O   0  0  0  0  0  0  0  0  0  0  0  0
    8.5955   -6.0705   17.3996 C   0  0  0  0  0  0  0  0  0  0  0  0
    4.6223   -8.3832   16.5030 C   0  0  0  0  0  0  0  0  0  0  0  0
   12.4690   -5.2624   19.9024 C   0  0  0  0  0  0  0  0  0  0  0  0
    3.2548   -9.9919   17.4189 C   0  0  0  0  0  0  0  0  0  0  0  0
   12.4767   -4.7393   22.1790 C   0  0  0  0  0  0  0  0  0  0  0  0
    7.8593   -5.3772   15.3569 N   0  0  0  0  0  0  0  0  0  0  0  0
    7.4412   -6.9038   16.9283 C   0  0  0  0  0  0  0  0  0  0  0  0
  1 21  4  0
  1 23  4  0
  2  5  1  0
  2 13  4  0
  2 16  4  0
  3  6  4  0
  3  7  4  0
  4 13  4  0
  4 19  4  0
  4 24  4  0
  6 23  4  0
  7 16  1  0
  7 21  4  0
  8 18  1  0
  9 20  4  0
  9 22  4  0
 10 17  1  0
 10 25  1  0
 11 16  4  0
 11 19  4  0
 12 15  4  0
 12 22  4  0
 14 24  4  0
 14 25  4  0
 15 17  4  0
 17 20  4  0
 18 23  1  0
 19 25  4  0
M  END
$$$$

 Created by Python create_sdf_string function

 25 28  0  0  0  0  0  0  0  0999 V2000
   13.1533   -5.2399   21.0682 C   0  0  0  0  0  0  0  0  0  0  0  0
   10.4729   -4.0295   17.6135 C   0  0  0  0  0  0  0  0  0  0  0  0
   10.4789   -4.3641   20.9564 C   0  0  0  0  0  0  0  0  0  0  0  0
    8.7421   -5.1412   16.3650 C   0  0  0  0  0  0  0  0  0  0  0  0
   11.4353   -2.9204   17.8044 C   0  0  0  0  0  0  0  0  0  0  0  0
   11.1529   -4.3028   22.1277 C   0  0  0  0  0  0  0  0  0  0  0  0
   11.1290   -4.8502   19.8052 C   0  0  0  0  0  0  0  0  0  0  0  0
   12.4329   -4.2159   24.4224 C   0  0  0  0  0  0  0  0  0  0  0  0
    3.4740   -9.0387   16.5022 C   0  0  0  0  0  0  0  0  0  0  0  0
    6.8384   -7.9290   17.5282 N   0  0  0  0  0  0  0  0  0  0  0  0
    9.4126   -5.9853   18.4899 C   0  0  0  0  0  0  0  0  0  0  0  0
    4.2064  -10.3242   18.3302 C   0  0  0  0  0  0  0  0  0  0  0  0
    9.6599   -4.1551   16.4796 N   0  0  0  0  0  0  0  0  0  0  0  0
    7.0644   -6.4612   15.7375 N   0  0  0  0  0  0  0  0  0  0  0  0
    5.3549   -9.6322   18.3190 C   0  0  0  0  0  0  0  0  0  0  0  0
   10.3704   -4.9638   18.6510 C   0  0  0  0  0  0  0  0  0  0  0  0
    5.5935   -8.6419   17.4234 C   0  0  0  0  0  0  0  0  0  0  0  0
   13.0726   -4.6648   23.3394 O   0  0  0  0  0  0  0  0  0  0  0  0
    8.5955   -6.0705   17.3996 C   0  0  0  0  0  0  0  0  0  0  0  0
    4.6223   -8.3832   16.5030 C   0  0  0  0  0  0  0  0  0  0  0  0
   12.4690   -5.2624   19.9024 C   0  0  0  0  0  0  0  0  0  0  0  0
    3.2548   -9.9919   17.4189 C   0  0  0  0  0  0  0  0  0  0  0  0
   12.4767   -4.7393   22.1790 C   0  0  0  0  0  0  0  0  0  0  0  0
    7.8593   -5.3772   15.3569 N   0  0  0  0  0  0  0  0  0  0  0  0
    7.4412   -6.9038   16.9283 C   0  0  0  0  0  0  0  0  0  0  0  0
  1 21  4  0
  1 23  4  0
  2  5  1  0
  2 13  4  0
  2 16  4  0
  3  6  4  0
  3  7  4  0
  4 13  4  0
  4 19  4  0
  4 24  4  0
  6 23  4  0
  7 16  1  0
  7 21  4  0
  8 18  1  0
  9 20  4  0
  9 22  4  0
 10 17  1  0
 10 25  1  0
 11 16  4  0
 11 19  4  0
 12 15  4  0
 12 22  4  0
 14 24  4  0
 14 25  4  0
 15 17  4  0
 17 20  4  0
 18 23  1  0
 19 25  4  0
M  END
$$$$

 Created by Python create_sdf_string function

 25 28  0  0  0  0  0  0  0  0999 V2000
   13.1533   -5.2399   21.0682 C   0  0  0  0  0  0  0  0  0  0  0  0
   10.4729   -4.0295   17.6135 C   0  0  0  0  0  0  0  0  0  0  0  0
   10.4789   -4.3641   20.9564 C   0  0  0  0  0  0  0  0  0  0  0  0
    8.7421   -5.1412   16.3650 C   0  0  0  0  0  0  0  0  0  0  0  0
   11.4353   -2.9204   17.8044 C   0  0  0  0  0  0  0  0  0  0  0  0
   11.1529   -4.3028   22.1277 C   0  0  0  0  0  0  0  0  0  0  0  0
   11.1290   -4.8502   19.8052 C   0  0  0  0  0  0  0  0  0  0  0  0
   12.4329   -4.2159   24.4224 C   0  0  0  0  0  0  0  0  0  0  0  0
    3.4740   -9.0387   16.5022 C   0  0  0  0  0  0  0  0  0  0  0  0
    6.8384   -7.9290   17.5282 N   0  0  0  0  0  0  0  0  0  0  0  0
    9.4126   -5.9853   18.4899 C   0  0  0  0  0  0  0  0  0  0  0  0
    4.2064  -10.3242   18.3302 C   0  0  0  0  0  0  0  0  0  0  0  0
    9.6599   -4.1551   16.4796 N   0  0  0  0  0  0  0  0  0  0  0  0
    7.0644   -6.4612   15.7375 N   0  0  0  0  0  0  0  0  0  0  0  0
    5.3549   -9.6322   18.3190 C   0  0  0  0  0  0  0  0  0  0  0  0
   10.3704   -4.9638   18.6510 C   0  0  0  0  0  0  0  0  0  0  0  0
    5.5935   -8.6419   17.4234 C   0  0  0  0  0  0  0  0  0  0  0  0
   13.0726   -4.6648   23.3394 O   0  0  0  0  0  0  0  0  0  0  0  0
    8.5955   -6.0705   17.3996 C   0  0  0  0  0  0  0  0  0  0  0  0
    4.6223   -8.3832   16.5030 C   0  0  0  0  0  0  0  0  0  0  0  0
   12.4690   -5.2624   19.9024 C   0  0  0  0  0  0  0  0  0  0  0  0
    3.2548   -9.9919   17.4189 C   0  0  0  0  0  0  0  0  0  0  0  0
   12.4767   -4.7393   22.1790 C   0  0  0  0  0  0  0  0  0  0  0  0
    7.8593   -5.3772   15.3569 N   0  0  0  0  0  0  0  0  0  0  0  0
    7.4412   -6.9038   16.9283 C   0  0  0  0  0  0  0  0  0  0  0  0
  1 21  4  0
  1 23  4  0
  2  5  1  0
  2 13  4  0
  2 16  4  0
  3  6  4  0
  3  7  4  0
  4 13  4  0
  4 19  4  0
  4 24  4  0
  6 23  4  0
  7 16  1  0
  7 21  4  0
  8 18  1  0
  9 20  4  0
  9 22  4  0
 10 17  1  0
 10 25  1  0
 11 16  4  0
 11 19  4  0
 12 15  4  0
 12 22  4  0
 14 24  4  0
 14 25  4  0
 15 17  4  0
 17 20  4  0
 18 23  1  0
 19 25  4  0
M  END
$$$$

 Created by Python create_sdf_string function

 25 28  0  0  0  0  0  0  0  0999 V2000
   13.1533   -5.2399   21.0682 C   0  0  0  0  0  0  0  0  0  0  0  0
   10.4729   -4.0295   17.6135 C   0  0  0  0  0  0  0  0  0  0  0  0
   10.4789   -4.3641   20.9564 C   0  0  0  0  0  0  0  0  0  0  0  0
    8.7421   -5.1412   16.3650 C   0  0  0  0  0  0  0  0  0  0  0  0
   11.4353   -2.9204   17.8044 C   0  0  0  0  0  0  0  0  0  0  0  0
   11.1529   -4.3028   22.1277 C   0  0  0  0  0  0  0  0  0  0  0  0
   11.1290   -4.8502   19.8052 C   0  0  0  0  0  0  0  0  0  0  0  0
   12.4329   -4.2159   24.4224 C   0  0  0  0  0  0  0  0  0  0  0  0
    3.4740   -9.0387   16.5022 C   0  0  0  0  0  0  0  0  0  0  0  0
    6.8384   -7.9290   17.5282 N   0  0  0  0  0  0  0  0  0  0  0  0
    9.4126   -5.9853   18.4899 C   0  0  0  0  0  0  0  0  0  0  0  0
    4.2064  -10.3242   18.3302 C   0  0  0  0  0  0  0  0  0  0  0  0
    9.6599   -4.1551   16.4796 N   0  0  0  0  0  0  0  0  0  0  0  0
    7.0644   -6.4612   15.7375 N   0  0  0  0  0  0  0  0  0  0  0  0
    5.3549   -9.6322   18.3190 C   0  0  0  0  0  0  0  0  0  0  0  0
   10.3704   -4.9638   18.6510 C   0  0  0  0  0  0  0  0  0  0  0  0
    5.5935   -8.6419   17.4234 C   0  0  0  0  0  0  0  0  0  0  0  0
   13.0726   -4.6648   23.3394 O   0  0  0  0  0  0  0  0  0  0  0  0
    8.5955   -6.0705   17.3996 C   0  0  0  0  0  0  0  0  0  0  0  0
    4.6223   -8.3832   16.5030 C   0  0  0  0  0  0  0  0  0  0  0  0
   12.4690   -5.2624   19.9024 C   0  0  0  0  0  0  0  0  0  0  0  0
    3.2548   -9.9919   17.4189 C   0  0  0  0  0  0  0  0  0  0  0  0
   12.4767   -4.7393   22.1790 C   0  0  0  0  0  0  0  0  0  0  0  0
    7.8593   -5.3772   15.3569 N   0  0  0  0  0  0  0  0  0  0  0  0
    7.4412   -6.9038   16.9283 C   0  0  0  0  0  0  0  0  0  0  0  0
  1 21  4  0
  1 23  4  0
  2  5  1  0
  2 13  4  0
  2 16  4  0
  3  6  4  0
  3  7  4  0
  4 13  4  0
  4 19  4  0
  4 24  4  0
  6 23  4  0
  7 16  1  0
  7 21  4  0
  8 18  1  0
  9 20  4  0
  9 22  4  0
 10 17  1  0
 10 25  1  0
 11 16  4  0
 11 19  4  0
 12 15  4  0
 12 22  4  0
 14 24  4  0
 14 25  4  0
 15 17  4  0
 17 20  4  0
 18 23  1  0
 19 25  4  0
M  END
$$$$

 Created by Python create_sdf_string function

 25 28  0  0  0  0  0  0  0  0999 V2000
   13.1533   -5.2399   21.0682 C   0  0  0  0  0  0  0  0  0  0  0  0
   10.4729   -4.0295   17.6135 C   0  0  0  0  0  0  0  0  0  0  0  0
   10.4789   -4.3641   20.9564 C   0  0  0  0  0  0  0  0  0  0  0  0
    8.7421   -5.1412   16.3650 C   0  0  0  0  0  0  0  0  0  0  0  0
   11.4353   -2.9204   17.8044 C   0  0  0  0  0  0  0  0  0  0  0  0
   11.1529   -4.3028   22.1277 C   0  0  0  0  0  0  0  0  0  0  0  0
   11.1290   -4.8502   19.8052 C   0  0  0  0  0  0  0  0  0  0  0  0
   12.4329   -4.2159   24.4224 C   0  0  0  0  0  0  0  0  0  0  0  0
    3.4740   -9.0387   16.5022 C   0  0  0  0  0  0  0  0  0  0  0  0
    6.8384   -7.9290   17.5282 N   0  0  0  0  0  0  0  0  0  0  0  0
    9.4126   -5.9853   18.4899 C   0  0  0  0  0  0  0  0  0  0  0  0
    4.2064  -10.3242   18.3302 C   0  0  0  0  0  0  0  0  0  0  0  0
    9.6599   -4.1551   16.4796 N   0  0  0  0  0  0  0  0  0  0  0  0
    7.0644   -6.4612   15.7375 N   0  0  0  0  0  0  0  0  0  0  0  0
    5.3549   -9.6322   18.3190 C   0  0  0  0  0  0  0  0  0  0  0  0
   10.3704   -4.9638   18.6510 C   0  0  0  0  0  0  0  0  0  0  0  0
    5.5935   -8.6419   17.4234 C   0  0  0  0  0  0  0  0  0  0  0  0
   13.0726   -4.6648   23.3394 O   0  0  0  0  0  0  0  0  0  0  0  0
    8.5955   -6.0705   17.3996 C   0  0  0  0  0  0  0  0  0  0  0  0
    4.6223   -8.3832   16.5030 C   0  0  0  0  0  0  0  0  0  0  0  0
   12.4690   -5.2624   19.9024 C   0  0  0  0  0  0  0  0  0  0  0  0
    3.2548   -9.9919   17.4189 C   0  0  0  0  0  0  0  0  0  0  0  0
   12.4767   -4.7393   22.1790 C   0  0  0  0  0  0  0  0  0  0  0  0
    7.8593   -5.3772   15.3569 N   0  0  0  0  0  0  0  0  0  0  0  0
    7.4412   -6.9038   16.9283 C   0  0  0  0  0  0  0  0  0  0  0  0
  1 21  4  0
  1 23  4  0
  2  5  1  0
  2 13  4  0
  2 16  4  0
  3  6  4  0
  3  7  4  0
  4 13  4  0
  4 19  4  0
  4 24  4  0
  6 23  4  0
  7 16  1  0
  7 21  4  0
  8 18  1  0
  9 20  4  0
  9 22  4  0
 10 17  1  0
 10 25  1  0
 11 16  4  0
 11 19  4  0
 12 15  4  0
 12 22  4  0
 14 24  4  0
 14 25  4  0
 15 17  4  0
 17 20  4  0
 18 23  1  0
 19 25  4  0
M  END
$$$$

 Created by Python create_sdf_string function

 25 28  0  0  0  0  0  0  0  0999 V2000
   13.1533   -5.2399   21.0682 C   0  0  0  0  0  0  0  0  0  0  0  0
   10.4729   -4.0295   17.6135 C   0  0  0  0  0  0  0  0  0  0  0  0
   10.4789   -4.3641   20.9564 C   0  0  0  0  0  0  0  0  0  0  0  0
    8.7421   -5.1412   16.3650 C   0  0  0  0  0  0  0  0  0  0  0  0
   11.4353   -2.9204   17.8044 C   0  0  0  0  0  0  0  0  0  0  0  0
   11.1529   -4.3028   22.1277 C   0  0  0  0  0  0  0  0  0  0  0  0
   11.1290   -4.8502   19.8052 C   0  0  0  0  0  0  0  0  0  0  0  0
   12.4329   -4.2159   24.4224 C   0  0  0  0  0  0  0  0  0  0  0  0
    3.4740   -9.0387   16.5022 C   0  0  0  0  0  0  0  0  0  0  0  0
    6.8384   -7.9290   17.5282 N   0  0  0  0  0  0  0  0  0  0  0  0
    9.4126   -5.9853   18.4899 C   0  0  0  0  0  0  0  0  0  0  0  0
    4.2064  -10.3242   18.3302 C   0  0  0  0  0  0  0  0  0  0  0  0
    9.6599   -4.1551   16.4796 N   0  0  0  0  0  0  0  0  0  0  0  0
    7.0644   -6.4612   15.7375 N   0  0  0  0  0  0  0  0  0  0  0  0
    5.3549   -9.6322   18.3190 C   0  0  0  0  0  0  0  0  0  0  0  0
   10.3704   -4.9638   18.6510 C   0  0  0  0  0  0  0  0  0  0  0  0
    5.5935   -8.6419   17.4234 C   0  0  0  0  0  0  0  0  0  0  0  0
   13.0726   -4.6648   23.3394 O   0  0  0  0  0  0  0  0  0  0  0  0
    8.5955   -6.0705   17.3996 C   0  0  0  0  0  0  0  0  0  0  0  0
    4.6223   -8.3832   16.5030 C   0  0  0  0  0  0  0  0  0  0  0  0
   12.4690   -5.2624   19.9024 C   0  0  0  0  0  0  0  0  0  0  0  0
    3.2548   -9.9919   17.4189 C   0  0  0  0  0  0  0  0  0  0  0  0
   12.4767   -4.7393   22.1790 C   0  0  0  0  0  0  0  0  0  0  0  0
    7.8593   -5.3772   15.3569 N   0  0  0  0  0  0  0  0  0  0  0  0
    7.4412   -6.9038   16.9283 C   0  0  0  0  0  0  0  0  0  0  0  0
  1 21  4  0
  1 23  4  0
  2  5  1  0
  2 13  4  0
  2 16  4  0
  3  6  4  0
  3  7  4  0
  4 13  4  0
  4 19  4  0
  4 24  4  0
  6 23  4  0
  7 16  1  0
  7 21  4  0
  8 18  1  0
  9 20  4  0
  9 22  4  0
 10 17  1  0
 10 25  1  0
 11 16  4  0
 11 19  4  0
 12 15  4  0
 12 22  4  0
 14 24  4  0
 14 25  4  0
 15 17  4  0
 17 20  4  0
 18 23  1  0
 19 25  4  0
M  END
$$$$

 Created by Python create_sdf_string function

 25 28  0  0  0  0  0  0  0  0999 V2000
   13.1533   -5.2399   21.0682 C   0  0  0  0  0  0  0  0  0  0  0  0
   10.4729   -4.0295   17.6135 C   0  0  0  0  0  0  0  0  0  0  0  0
   10.4789   -4.3641   20.9564 C   0  0  0  0  0  0  0  0  0  0  0  0
    8.7421   -5.1412   16.3650 C   0  0  0  0  0  0  0  0  0  0  0  0
   11.4353   -2.9204   17.8044 C   0  0  0  0  0  0  0  0  0  0  0  0
   11.1529   -4.3028   22.1277 C   0  0  0  0  0  0  0  0  0  0  0  0
   11.1290   -4.8502   19.8052 C   0  0  0  0  0  0  0  0  0  0  0  0
   12.4329   -4.2159   24.4224 C   0  0  0  0  0  0  0  0  0  0  0  0
    3.4740   -9.0387   16.5022 C   0  0  0  0  0  0  0  0  0  0  0  0
    6.8384   -7.9290   17.5282 N   0  0  0  0  0  0  0  0  0  0  0  0
    9.4126   -5.9853   18.4899 C   0  0  0  0  0  0  0  0  0  0  0  0
    4.2064  -10.3242   18.3302 C   0  0  0  0  0  0  0  0  0  0  0  0
    9.6599   -4.1551   16.4796 N   0  0  0  0  0  0  0  0  0  0  0  0
    7.0644   -6.4612   15.7375 N   0  0  0  0  0  0  0  0  0  0  0  0
    5.3549   -9.6322   18.3190 C   0  0  0  0  0  0  0  0  0  0  0  0
   10.3704   -4.9638   18.6510 C   0  0  0  0  0  0  0  0  0  0  0  0
    5.5935   -8.6419   17.4234 C   0  0  0  0  0  0  0  0  0  0  0  0
   13.0726   -4.6648   23.3394 O   0  0  0  0  0  0  0  0  0  0  0  0
    8.5955   -6.0705   17.3996 C   0  0  0  0  0  0  0  0  0  0  0  0
    4.6223   -8.3832   16.5030 C   0  0  0  0  0  0  0  0  0  0  0  0
   12.4690   -5.2624   19.9024 C   0  0  0  0  0  0  0  0  0  0  0  0
    3.2548   -9.9919   17.4189 C   0  0  0  0  0  0  0  0  0  0  0  0
   12.4767   -4.7393   22.1790 C   0  0  0  0  0  0  0  0  0  0  0  0
    7.8593   -5.3772   15.3569 N   0  0  0  0  0  0  0  0  0  0  0  0
    7.4412   -6.9038   16.9283 C   0  0  0  0  0  0  0  0  0  0  0  0
  1 21  4  0
  1 23  4  0
  2  5  1  0
  2 13  4  0
  2 16  4  0
  3  6  4  0
  3  7  4  0
  4 13  4  0
  4 19  4  0
  4 24  4  0
  6 23  4  0
  7 16  1  0
  7 21  4  0
  8 18  1  0
  9 20  4  0
  9 22  4  0
 10 17  1  0
 10 25  1  0
 11 16  4  0
 11 19  4  0
 12 15  4  0
 12 22  4  0
 14 24  4  0
 14 25  4  0
 15 17  4  0
 17 20  4  0
 18 23  1  0
 19 25  4  0
M  END
$$$$

 Created by Python create_sdf_string function

 25 28  0  0  0  0  0  0  0  0999 V2000
   13.1533   -5.2399   21.0682 C   0  0  0  0  0  0  0  0  0  0  0  0
   10.4729   -4.0295   17.6135 C   0  0  0  0  0  0  0  0  0  0  0  0
   10.4789   -4.3641   20.9564 C   0  0  0  0  0  0  0  0  0  0  0  0
    8.7421   -5.1412   16.3650 C   0  0  0  0  0  0  0  0  0  0  0  0
   11.4353   -2.9204   17.8044 C   0  0  0  0  0  0  0  0  0  0  0  0
   11.1529   -4.3028   22.1277 C   0  0  0  0  0  0  0  0  0  0  0  0
   11.1290   -4.8502   19.8052 C   0  0  0  0  0  0  0  0  0  0  0  0
   12.4329   -4.2159   24.4224 C   0  0  0  0  0  0  0  0  0  0  0  0
    3.4740   -9.0387   16.5022 C   0  0  0  0  0  0  0  0  0  0  0  0
    6.8384   -7.9290   17.5282 N   0  0  0  0  0  0  0  0  0  0  0  0
    9.4126   -5.9853   18.4899 C   0  0  0  0  0  0  0  0  0  0  0  0
    4.2064  -10.3242   18.3302 C   0  0  0  0  0  0  0  0  0  0  0  0
    9.6599   -4.1551   16.4796 N   0  0  0  0  0  0  0  0  0  0  0  0
    7.0644   -6.4612   15.7375 N   0  0  0  0  0  0  0  0  0  0  0  0
    5.3549   -9.6322   18.3190 C   0  0  0  0  0  0  0  0  0  0  0  0
   10.3704   -4.9638   18.6510 C   0  0  0  0  0  0  0  0  0  0  0  0
    5.5935   -8.6419   17.4234 C   0  0  0  0  0  0  0  0  0  0  0  0
   13.0726   -4.6648   23.3394 O   0  0  0  0  0  0  0  0  0  0  0  0
    8.5955   -6.0705   17.3996 C   0  0  0  0  0  0  0  0  0  0  0  0
    4.6223   -8.3832   16.5030 C   0  0  0  0  0  0  0  0  0  0  0  0
   12.4690   -5.2624   19.9024 C   0  0  0  0  0  0  0  0  0  0  0  0
    3.2548   -9.9919   17.4189 C   0  0  0  0  0  0  0  0  0  0  0  0
   12.4767   -4.7393   22.1790 C   0  0  0  0  0  0  0  0  0  0  0  0
    7.8593   -5.3772   15.3569 N   0  0  0  0  0  0  0  0  0  0  0  0
    7.4412   -6.9038   16.9283 C   0  0  0  0  0  0  0  0  0  0  0  0
  1 21  4  0
  1 23  4  0
  2  5  1  0
  2 13  4  0
  2 16  4  0
  3  6  4  0
  3  7  4  0
  4 13  4  0
  4 19  4  0
  4 24  4  0
  6 23  4  0
  7 16  1  0
  7 21  4  0
  8 18  1  0
  9 20  4  0
  9 22  4  0
 10 17  1  0
 10 25  1  0
 11 16  4  0
 11 19  4  0
 12 15  4  0
 12 22  4  0
 14 24  4  0
 14 25  4  0
 15 17  4  0
 17 20  4  0
 18 23  1  0
 19 25  4  0
M  END
$$$$

 Created by Python create_sdf_string function

 25 28  0  0  0  0  0  0  0  0999 V2000
   13.1533   -5.2399   21.0682 C   0  0  0  0  0  0  0  0  0  0  0  0
   10.4729   -4.0295   17.6135 C   0  0  0  0  0  0  0  0  0  0  0  0
   10.4789   -4.3641   20.9564 C   0  0  0  0  0  0  0  0  0  0  0  0
    8.7421   -5.1412   16.3650 C   0  0  0  0  0  0  0  0  0  0  0  0
   11.4353   -2.9204   17.8044 C   0  0  0  0  0  0  0  0  0  0  0  0
   11.1529   -4.3028   22.1277 C   0  0  0  0  0  0  0  0  0  0  0  0
   11.1290   -4.8502   19.8052 C   0  0  0  0  0  0  0  0  0  0  0  0
   12.4329   -4.2159   24.4224 C   0  0  0  0  0  0  0  0  0  0  0  0
    3.4740   -9.0387   16.5022 C   0  0  0  0  0  0  0  0  0  0  0  0
    6.8384   -7.9290   17.5282 N   0  0  0  0  0  0  0  0  0  0  0  0
    9.4126   -5.9853   18.4899 C   0  0  0  0  0  0  0  0  0  0  0  0
    4.2064  -10.3242   18.3302 C   0  0  0  0  0  0  0  0  0  0  0  0
    9.6599   -4.1551   16.4796 N   0  0  0  0  0  0  0  0  0  0  0  0
    7.0644   -6.4612   15.7375 N   0  0  0  0  0  0  0  0  0  0  0  0
    5.3549   -9.6322   18.3190 C   0  0  0  0  0  0  0  0  0  0  0  0
   10.3704   -4.9638   18.6510 C   0  0  0  0  0  0  0  0  0  0  0  0
    5.5935   -8.6419   17.4234 C   0  0  0  0  0  0  0  0  0  0  0  0
   13.0726   -4.6648   23.3394 O   0  0  0  0  0  0  0  0  0  0  0  0
    8.5955   -6.0705   17.3996 C   0  0  0  0  0  0  0  0  0  0  0  0
    4.6223   -8.3832   16.5030 C   0  0  0  0  0  0  0  0  0  0  0  0
   12.4690   -5.2624   19.9024 C   0  0  0  0  0  0  0  0  0  0  0  0
    3.2548   -9.9919   17.4189 C   0  0  0  0  0  0  0  0  0  0  0  0
   12.4767   -4.7393   22.1790 C   0  0  0  0  0  0  0  0  0  0  0  0
    7.8593   -5.3772   15.3569 N   0  0  0  0  0  0  0  0  0  0  0  0
    7.4412   -6.9038   16.9283 C   0  0  0  0  0  0  0  0  0  0  0  0
  1 21  4  0
  1 23  4  0
  2  5  1  0
  2 13  4  0
  2 16  4  0
  3  6  4  0
  3  7  4  0
  4 13  4  0
  4 19  4  0
  4 24  4  0
  6 23  4  0
  7 16  1  0
  7 21  4  0
  8 18  1  0
  9 20  4  0
  9 22  4  0
 10 17  1  0
 10 25  1  0
 11 16  4  0
 11 19  4  0
 12 15  4  0
 12 22  4  0
 14 24  4  0
 14 25  4  0
 15 17  4  0
 17 20  4  0
 18 23  1  0
 19 25  4  0
M  END
$$$$

 Created by Python create_sdf_string function

 25 28  0  0  0  0  0  0  0  0999 V2000
   13.1533   -5.2399   21.0682 C   0  0  0  0  0  0  0  0  0  0  0  0
   10.4729   -4.0295   17.6135 C   0  0  0  0  0  0  0  0  0  0  0  0
   10.4789   -4.3641   20.9564 C   0  0  0  0  0  0  0  0  0  0  0  0
    8.7421   -5.1412   16.3650 C   0  0  0  0  0  0  0  0  0  0  0  0
   11.4353   -2.9204   17.8044 C   0  0  0  0  0  0  0  0  0  0  0  0
   11.1529   -4.3028   22.1277 C   0  0  0  0  0  0  0  0  0  0  0  0
   11.1290   -4.8502   19.8052 C   0  0  0  0  0  0  0  0  0  0  0  0
   12.4329   -4.2159   24.4224 C   0  0  0  0  0  0  0  0  0  0  0  0
    3.4740   -9.0387   16.5022 C   0  0  0  0  0  0  0  0  0  0  0  0
    6.8384   -7.9290   17.5282 N   0  0  0  0  0  0  0  0  0  0  0  0
    9.4126   -5.9853   18.4899 C   0  0  0  0  0  0  0  0  0  0  0  0
    4.2064  -10.3242   18.3302 C   0  0  0  0  0  0  0  0  0  0  0  0
    9.6599   -4.1551   16.4796 N   0  0  0  0  0  0  0  0  0  0  0  0
    7.0644   -6.4612   15.7375 N   0  0  0  0  0  0  0  0  0  0  0  0
    5.3549   -9.6322   18.3190 C   0  0  0  0  0  0  0  0  0  0  0  0
   10.3704   -4.9638   18.6510 C   0  0  0  0  0  0  0  0  0  0  0  0
    5.5935   -8.6419   17.4234 C   0  0  0  0  0  0  0  0  0  0  0  0
   13.0726   -4.6648   23.3394 O   0  0  0  0  0  0  0  0  0  0  0  0
    8.5955   -6.0705   17.3996 C   0  0  0  0  0  0  0  0  0  0  0  0
    4.6223   -8.3832   16.5030 C   0  0  0  0  0  0  0  0  0  0  0  0
   12.4690   -5.2624   19.9024 C   0  0  0  0  0  0  0  0  0  0  0  0
    3.2548   -9.9919   17.4189 C   0  0  0  0  0  0  0  0  0  0  0  0
   12.4767   -4.7393   22.1790 C   0  0  0  0  0  0  0  0  0  0  0  0
    7.8593   -5.3772   15.3569 N   0  0  0  0  0  0  0  0  0  0  0  0
    7.4412   -6.9038   16.9283 C   0  0  0  0  0  0  0  0  0  0  0  0
  1 21  4  0
  1 23  4  0
  2  5  1  0
  2 13  4  0
  2 16  4  0
  3  6  4  0
  3  7  4  0
  4 13  4  0
  4 19  4  0
  4 24  4  0
  6 23  4  0
  7 16  1  0
  7 21  4  0
  8 18  1  0
  9 20  4  0
  9 22  4  0
 10 17  1  0
 10 25  1  0
 11 16  4  0
 11 19  4  0
 12 15  4  0
 12 22  4  0
 14 24  4  0
 14 25  4  0
 15 17  4  0
 17 20  4  0
 18 23  1  0
 19 25  4  0
M  END
$$$$

 Created by Python create_sdf_string function

 25 28  0  0  0  0  0  0  0  0999 V2000
   13.1533   -5.2399   21.0682 C   0  0  0  0  0  0  0  0  0  0  0  0
   10.4729   -4.0295   17.6135 C   0  0  0  0  0  0  0  0  0  0  0  0
   10.4789   -4.3641   20.9564 C   0  0  0  0  0  0  0  0  0  0  0  0
    8.7421   -5.1412   16.3650 C   0  0  0  0  0  0  0  0  0  0  0  0
   11.4353   -2.9204   17.8044 C   0  0  0  0  0  0  0  0  0  0  0  0
   11.1529   -4.3028   22.1277 C   0  0  0  0  0  0  0  0  0  0  0  0
   11.1290   -4.8502   19.8052 C   0  0  0  0  0  0  0  0  0  0  0  0
   12.4329   -4.2159   24.4224 C   0  0  0  0  0  0  0  0  0  0  0  0
    3.4740   -9.0387   16.5022 C   0  0  0  0  0  0  0  0  0  0  0  0
    6.8384   -7.9290   17.5282 N   0  0  0  0  0  0  0  0  0  0  0  0
    9.4126   -5.9853   18.4899 C   0  0  0  0  0  0  0  0  0  0  0  0
    4.2064  -10.3242   18.3302 C   0  0  0  0  0  0  0  0  0  0  0  0
    9.6599   -4.1551   16.4796 N   0  0  0  0  0  0  0  0  0  0  0  0
    7.0644   -6.4612   15.7375 N   0  0  0  0  0  0  0  0  0  0  0  0
    5.3549   -9.6322   18.3190 C   0  0  0  0  0  0  0  0  0  0  0  0
   10.3704   -4.9638   18.6510 C   0  0  0  0  0  0  0  0  0  0  0  0
    5.5935   -8.6419   17.4234 C   0  0  0  0  0  0  0  0  0  0  0  0
   13.0726   -4.6648   23.3394 O   0  0  0  0  0  0  0  0  0  0  0  0
    8.5955   -6.0705   17.3996 C   0  0  0  0  0  0  0  0  0  0  0  0
    4.6223   -8.3832   16.5030 C   0  0  0  0  0  0  0  0  0  0  0  0
   12.4690   -5.2624   19.9024 C   0  0  0  0  0  0  0  0  0  0  0  0
    3.2548   -9.9919   17.4189 C   0  0  0  0  0  0  0  0  0  0  0  0
   12.4767   -4.7393   22.1790 C   0  0  0  0  0  0  0  0  0  0  0  0
    7.8593   -5.3772   15.3569 N   0  0  0  0  0  0  0  0  0  0  0  0
    7.4412   -6.9038   16.9283 C   0  0  0  0  0  0  0  0  0  0  0  0
  1 21  4  0
  1 23  4  0
  2  5  1  0
  2 13  4  0
  2 16  4  0
  3  6  4  0
  3  7  4  0
  4 13  4  0
  4 19  4  0
  4 24  4  0
  6 23  4  0
  7 16  1  0
  7 21  4  0
  8 18  1  0
  9 20  4  0
  9 22  4  0
 10 17  1  0
 10 25  1  0
 11 16  4  0
 11 19  4  0
 12 15  4  0
 12 22  4  0
 14 24  4  0
 14 25  4  0
 15 17  4  0
 17 20  4  0
 18 23  1  0
 19 25  4  0
M  END
$$$$

 Created by Python create_sdf_string function

 25 28  0  0  0  0  0  0  0  0999 V2000
   13.1533   -5.2399   21.0682 C   0  0  0  0  0  0  0  0  0  0  0  0
   10.4729   -4.0295   17.6135 C   0  0  0  0  0  0  0  0  0  0  0  0
   10.4789   -4.3641   20.9564 C   0  0  0  0  0  0  0  0  0  0  0  0
    8.7421   -5.1412   16.3650 C   0  0  0  0  0  0  0  0  0  0  0  0
   11.4353   -2.9204   17.8044 C   0  0  0  0  0  0  0  0  0  0  0  0
   11.1529   -4.3028   22.1277 C   0  0  0  0  0  0  0  0  0  0  0  0
   11.1290   -4.8502   19.8052 C   0  0  0  0  0  0  0  0  0  0  0  0
   12.4329   -4.2159   24.4224 C   0  0  0  0  0  0  0  0  0  0  0  0
    3.4740   -9.0387   16.5022 C   0  0  0  0  0  0  0  0  0  0  0  0
    6.8384   -7.9290   17.5282 N   0  0  0  0  0  0  0  0  0  0  0  0
    9.4126   -5.9853   18.4899 C   0  0  0  0  0  0  0  0  0  0  0  0
    4.2064  -10.3242   18.3302 C   0  0  0  0  0  0  0  0  0  0  0  0
    9.6599   -4.1551   16.4796 N   0  0  0  0  0  0  0  0  0  0  0  0
    7.0644   -6.4612   15.7375 N   0  0  0  0  0  0  0  0  0  0  0  0
    5.3549   -9.6322   18.3190 C   0  0  0  0  0  0  0  0  0  0  0  0
   10.3704   -4.9638   18.6510 C   0  0  0  0  0  0  0  0  0  0  0  0
    5.5935   -8.6419   17.4234 C   0  0  0  0  0  0  0  0  0  0  0  0
   13.0726   -4.6648   23.3394 O   0  0  0  0  0  0  0  0  0  0  0  0
    8.5955   -6.0705   17.3996 C   0  0  0  0  0  0  0  0  0  0  0  0
    4.6223   -8.3832   16.5030 C   0  0  0  0  0  0  0  0  0  0  0  0
   12.4690   -5.2624   19.9024 C   0  0  0  0  0  0  0  0  0  0  0  0
    3.2548   -9.9919   17.4189 C   0  0  0  0  0  0  0  0  0  0  0  0
   12.4767   -4.7393   22.1790 C   0  0  0  0  0  0  0  0  0  0  0  0
    7.8593   -5.3772   15.3569 N   0  0  0  0  0  0  0  0  0  0  0  0
    7.4412   -6.9038   16.9283 C   0  0  0  0  0  0  0  0  0  0  0  0
  1 21  4  0
  1 23  4  0
  2  5  1  0
  2 13  4  0
  2 16  4  0
  3  6  4  0
  3  7  4  0
  4 13  4  0
  4 19  4  0
  4 24  4  0
  6 23  4  0
  7 16  1  0
  7 21  4  0
  8 18  1  0
  9 20  4  0
  9 22  4  0
 10 17  1  0
 10 25  1  0
 11 16  4  0
 11 19  4  0
 12 15  4  0
 12 22  4  0
 14 24  4  0
 14 25  4  0
 15 17  4  0
 17 20  4  0
 18 23  1  0
 19 25  4  0
M  END
$$$$

 Created by Python create_sdf_string function

 25 28  0  0  0  0  0  0  0  0999 V2000
   13.1533   -5.2399   21.0682 C   0  0  0  0  0  0  0  0  0  0  0  0
   10.4729   -4.0295   17.6135 C   0  0  0  0  0  0  0  0  0  0  0  0
   10.4789   -4.3641   20.9564 C   0  0  0  0  0  0  0  0  0  0  0  0
    8.7421   -5.1412   16.3650 C   0  0  0  0  0  0  0  0  0  0  0  0
   11.4353   -2.9204   17.8044 C   0  0  0  0  0  0  0  0  0  0  0  0
   11.1529   -4.3028   22.1277 C   0  0  0  0  0  0  0  0  0  0  0  0
   11.1290   -4.8502   19.8052 C   0  0  0  0  0  0  0  0  0  0  0  0
   12.4329   -4.2159   24.4224 C   0  0  0  0  0  0  0  0  0  0  0  0
    3.4740   -9.0387   16.5022 C   0  0  0  0  0  0  0  0  0  0  0  0
    6.8384   -7.9290   17.5282 N   0  0  0  0  0  0  0  0  0  0  0  0
    9.4126   -5.9853   18.4899 C   0  0  0  0  0  0  0  0  0  0  0  0
    4.2064  -10.3242   18.3302 C   0  0  0  0  0  0  0  0  0  0  0  0
    9.6599   -4.1551   16.4796 N   0  0  0  0  0  0  0  0  0  0  0  0
    7.0644   -6.4612   15.7375 N   0  0  0  0  0  0  0  0  0  0  0  0
    5.3549   -9.6322   18.3190 C   0  0  0  0  0  0  0  0  0  0  0  0
   10.3704   -4.9638   18.6510 C   0  0  0  0  0  0  0  0  0  0  0  0
    5.5935   -8.6419   17.4234 C   0  0  0  0  0  0  0  0  0  0  0  0
   13.0726   -4.6648   23.3394 O   0  0  0  0  0  0  0  0  0  0  0  0
    8.5955   -6.0705   17.3996 C   0  0  0  0  0  0  0  0  0  0  0  0
    4.6223   -8.3832   16.5030 C   0  0  0  0  0  0  0  0  0  0  0  0
   12.4690   -5.2624   19.9024 C   0  0  0  0  0  0  0  0  0  0  0  0
    3.2548   -9.9919   17.4189 C   0  0  0  0  0  0  0  0  0  0  0  0
   12.4767   -4.7393   22.1790 C   0  0  0  0  0  0  0  0  0  0  0  0
    7.8593   -5.3772   15.3569 N   0  0  0  0  0  0  0  0  0  0  0  0
    7.4412   -6.9038   16.9283 C   0  0  0  0  0  0  0  0  0  0  0  0
  1 21  4  0
  1 23  4  0
  2  5  1  0
  2 13  4  0
  2 16  4  0
  3  6  4  0
  3  7  4  0
  4 13  4  0
  4 19  4  0
  4 24  4  0
  6 23  4  0
  7 16  1  0
  7 21  4  0
  8 18  1  0
  9 20  4  0
  9 22  4  0
 10 17  1  0
 10 25  1  0
 11 16  4  0
 11 19  4  0
 12 15  4  0
 12 22  4  0
 14 24  4  0
 14 25  4  0
 15 17  4  0
 17 20  4  0
 18 23  1  0
 19 25  4  0
M  END
$$$$

 Created by Python create_sdf_string function

 25 28  0  0  0  0  0  0  0  0999 V2000
   13.1533   -5.2399   21.0682 C   0  0  0  0  0  0  0  0  0  0  0  0
   10.4729   -4.0295   17.6135 C   0  0  0  0  0  0  0  0  0  0  0  0
   10.4789   -4.3641   20.9564 C   0  0  0  0  0  0  0  0  0  0  0  0
    8.7421   -5.1412   16.3650 C   0  0  0  0  0  0  0  0  0  0  0  0
   11.4353   -2.9204   17.8044 C   0  0  0  0  0  0  0  0  0  0  0  0
   11.1529   -4.3028   22.1277 C   0  0  0  0  0  0  0  0  0  0  0  0
   11.1290   -4.8502   19.8052 C   0  0  0  0  0  0  0  0  0  0  0  0
   12.4329   -4.2159   24.4224 C   0  0  0  0  0  0  0  0  0  0  0  0
    3.4740   -9.0387   16.5022 C   0  0  0  0  0  0  0  0  0  0  0  0
    6.8384   -7.9290   17.5282 N   0  0  0  0  0  0  0  0  0  0  0  0
    9.4126   -5.9853   18.4899 C   0  0  0  0  0  0  0  0  0  0  0  0
    4.2064  -10.3242   18.3302 C   0  0  0  0  0  0  0  0  0  0  0  0
    9.6599   -4.1551   16.4796 N   0  0  0  0  0  0  0  0  0  0  0  0
    7.0644   -6.4612   15.7375 N   0  0  0  0  0  0  0  0  0  0  0  0
    5.3549   -9.6322   18.3190 C   0  0  0  0  0  0  0  0  0  0  0  0
   10.3704   -4.9638   18.6510 C   0  0  0  0  0  0  0  0  0  0  0  0
    5.5935   -8.6419   17.4234 C   0  0  0  0  0  0  0  0  0  0  0  0
   13.0726   -4.6648   23.3394 O   0  0  0  0  0  0  0  0  0  0  0  0
    8.5955   -6.0705   17.3996 C   0  0  0  0  0  0  0  0  0  0  0  0
    4.6223   -8.3832   16.5030 C   0  0  0  0  0  0  0  0  0  0  0  0
   12.4690   -5.2624   19.9024 C   0  0  0  0  0  0  0  0  0  0  0  0
    3.2548   -9.9919   17.4189 C   0  0  0  0  0  0  0  0  0  0  0  0
   12.4767   -4.7393   22.1790 C   0  0  0  0  0  0  0  0  0  0  0  0
    7.8593   -5.3772   15.3569 N   0  0  0  0  0  0  0  0  0  0  0  0
    7.4412   -6.9038   16.9283 C   0  0  0  0  0  0  0  0  0  0  0  0
  1 21  4  0
  1 23  4  0
  2  5  1  0
  2 13  4  0
  2 16  4  0
  3  6  4  0
  3  7  4  0
  4 13  4  0
  4 19  4  0
  4 24  4  0
  6 23  4  0
  7 16  1  0
  7 21  4  0
  8 18  1  0
  9 20  4  0
  9 22  4  0
 10 17  1  0
 10 25  1  0
 11 16  4  0
 11 19  4  0
 12 15  4  0
 12 22  4  0
 14 24  4  0
 14 25  4  0
 15 17  4  0
 17 20  4  0
 18 23  1  0
 19 25  4  0
M  END
$$$$

 Created by Python create_sdf_string function

 25 28  0  0  0  0  0  0  0  0999 V2000
   13.1533   -5.2399   21.0682 C   0  0  0  0  0  0  0  0  0  0  0  0
   10.4729   -4.0295   17.6135 C   0  0  0  0  0  0  0  0  0  0  0  0
   10.4789   -4.3641   20.9564 C   0  0  0  0  0  0  0  0  0  0  0  0
    8.7421   -5.1412   16.3650 C   0  0  0  0  0  0  0  0  0  0  0  0
   11.4353   -2.9204   17.8044 C   0  0  0  0  0  0  0  0  0  0  0  0
   11.1529   -4.3028   22.1277 C   0  0  0  0  0  0  0  0  0  0  0  0
   11.1290   -4.8502   19.8052 C   0  0  0  0  0  0  0  0  0  0  0  0
   12.4329   -4.2159   24.4224 C   0  0  0  0  0  0  0  0  0  0  0  0
    3.4740   -9.0387   16.5022 C   0  0  0  0  0  0  0  0  0  0  0  0
    6.8384   -7.9290   17.5282 N   0  0  0  0  0  0  0  0  0  0  0  0
    9.4126   -5.9853   18.4899 C   0  0  0  0  0  0  0  0  0  0  0  0
    4.2064  -10.3242   18.3302 C   0  0  0  0  0  0  0  0  0  0  0  0
    9.6599   -4.1551   16.4796 N   0  0  0  0  0  0  0  0  0  0  0  0
    7.0644   -6.4612   15.7375 N   0  0  0  0  0  0  0  0  0  0  0  0
    5.3549   -9.6322   18.3190 C   0  0  0  0  0  0  0  0  0  0  0  0
   10.3704   -4.9638   18.6510 C   0  0  0  0  0  0  0  0  0  0  0  0
    5.5935   -8.6419   17.4234 C   0  0  0  0  0  0  0  0  0  0  0  0
   13.0726   -4.6648   23.3394 O   0  0  0  0  0  0  0  0  0  0  0  0
    8.5955   -6.0705   17.3996 C   0  0  0  0  0  0  0  0  0  0  0  0
    4.6223   -8.3832   16.5030 C   0  0  0  0  0  0  0  0  0  0  0  0
   12.4690   -5.2624   19.9024 C   0  0  0  0  0  0  0  0  0  0  0  0
    3.2548   -9.9919   17.4189 C   0  0  0  0  0  0  0  0  0  0  0  0
   12.4767   -4.7393   22.1790 C   0  0  0  0  0  0  0  0  0  0  0  0
    7.8593   -5.3772   15.3569 N   0  0  0  0  0  0  0  0  0  0  0  0
    7.4412   -6.9038   16.9283 C   0  0  0  0  0  0  0  0  0  0  0  0
  1 21  4  0
  1 23  4  0
  2  5  1  0
  2 13  4  0
  2 16  4  0
  3  6  4  0
  3  7  4  0
  4 13  4  0
  4 19  4  0
  4 24  4  0
  6 23  4  0
  7 16  1  0
  7 21  4  0
  8 18  1  0
  9 20  4  0
  9 22  4  0
 10 17  1  0
 10 25  1  0
 11 16  4  0
 11 19  4  0
 12 15  4  0
 12 22  4  0
 14 24  4  0
 14 25  4  0
 15 17  4  0
 17 20  4  0
 18 23  1  0
 19 25  4  0
M  END
$$$$

 Created by Python create_sdf_string function

 25 28  0  0  0  0  0  0  0  0999 V2000
   13.1533   -5.2399   21.0682 C   0  0  0  0  0  0  0  0  0  0  0  0
   10.4729   -4.0295   17.6135 C   0  0  0  0  0  0  0  0  0  0  0  0
   10.4789   -4.3641   20.9564 C   0  0  0  0  0  0  0  0  0  0  0  0
    8.7421   -5.1412   16.3650 C   0  0  0  0  0  0  0  0  0  0  0  0
   11.4353   -2.9204   17.8044 C   0  0  0  0  0  0  0  0  0  0  0  0
   11.1529   -4.3028   22.1277 C   0  0  0  0  0  0  0  0  0  0  0  0
   11.1290   -4.8502   19.8052 C   0  0  0  0  0  0  0  0  0  0  0  0
   12.4329   -4.2159   24.4224 C   0  0  0  0  0  0  0  0  0  0  0  0
    3.4740   -9.0387   16.5022 C   0  0  0  0  0  0  0  0  0  0  0  0
    6.8384   -7.9290   17.5282 N   0  0  0  0  0  0  0  0  0  0  0  0
    9.4126   -5.9853   18.4899 C   0  0  0  0  0  0  0  0  0  0  0  0
    4.2064  -10.3242   18.3302 C   0  0  0  0  0  0  0  0  0  0  0  0
    9.6599   -4.1551   16.4796 N   0  0  0  0  0  0  0  0  0  0  0  0
    7.0644   -6.4612   15.7375 N   0  0  0  0  0  0  0  0  0  0  0  0
    5.3549   -9.6322   18.3190 C   0  0  0  0  0  0  0  0  0  0  0  0
   10.3704   -4.9638   18.6510 C   0  0  0  0  0  0  0  0  0  0  0  0
    5.5935   -8.6419   17.4234 C   0  0  0  0  0  0  0  0  0  0  0  0
   13.0726   -4.6648   23.3394 O   0  0  0  0  0  0  0  0  0  0  0  0
    8.5955   -6.0705   17.3996 C   0  0  0  0  0  0  0  0  0  0  0  0
    4.6223   -8.3832   16.5030 C   0  0  0  0  0  0  0  0  0  0  0  0
   12.4690   -5.2624   19.9024 C   0  0  0  0  0  0  0  0  0  0  0  0
    3.2548   -9.9919   17.4189 C   0  0  0  0  0  0  0  0  0  0  0  0
   12.4767   -4.7393   22.1790 C   0  0  0  0  0  0  0  0  0  0  0  0
    7.8593   -5.3772   15.3569 N   0  0  0  0  0  0  0  0  0  0  0  0
    7.4412   -6.9038   16.9283 C   0  0  0  0  0  0  0  0  0  0  0  0
  1 21  4  0
  1 23  4  0
  2  5  1  0
  2 13  4  0
  2 16  4  0
  3  6  4  0
  3  7  4  0
  4 13  4  0
  4 19  4  0
  4 24  4  0
  6 23  4  0
  7 16  1  0
  7 21  4  0
  8 18  1  0
  9 20  4  0
  9 22  4  0
 10 17  1  0
 10 25  1  0
 11 16  4  0
 11 19  4  0
 12 15  4  0
 12 22  4  0
 14 24  4  0
 14 25  4  0
 15 17  4  0
 17 20  4  0
 18 23  1  0
 19 25  4  0
M  END
$$$$

 Created by Python create_sdf_string function

 25 28  0  0  0  0  0  0  0  0999 V2000
   13.1533   -5.2399   21.0682 C   0  0  0  0  0  0  0  0  0  0  0  0
   10.4729   -4.0295   17.6135 C   0  0  0  0  0  0  0  0  0  0  0  0
   10.4789   -4.3641   20.9564 C   0  0  0  0  0  0  0  0  0  0  0  0
    8.7421   -5.1412   16.3650 C   0  0  0  0  0  0  0  0  0  0  0  0
   11.4353   -2.9204   17.8044 C   0  0  0  0  0  0  0  0  0  0  0  0
   11.1529   -4.3028   22.1277 C   0  0  0  0  0  0  0  0  0  0  0  0
   11.1290   -4.8502   19.8052 C   0  0  0  0  0  0  0  0  0  0  0  0
   12.4329   -4.2159   24.4224 C   0  0  0  0  0  0  0  0  0  0  0  0
    3.4740   -9.0387   16.5022 C   0  0  0  0  0  0  0  0  0  0  0  0
    6.8384   -7.9290   17.5282 N   0  0  0  0  0  0  0  0  0  0  0  0
    9.4126   -5.9853   18.4899 C   0  0  0  0  0  0  0  0  0  0  0  0
    4.2064  -10.3242   18.3302 C   0  0  0  0  0  0  0  0  0  0  0  0
    9.6599   -4.1551   16.4796 N   0  0  0  0  0  0  0  0  0  0  0  0
    7.0644   -6.4612   15.7375 N   0  0  0  0  0  0  0  0  0  0  0  0
    5.3549   -9.6322   18.3190 C   0  0  0  0  0  0  0  0  0  0  0  0
   10.3704   -4.9638   18.6510 C   0  0  0  0  0  0  0  0  0  0  0  0
    5.5935   -8.6419   17.4234 C   0  0  0  0  0  0  0  0  0  0  0  0
   13.0726   -4.6648   23.3394 O   0  0  0  0  0  0  0  0  0  0  0  0
    8.5955   -6.0705   17.3996 C   0  0  0  0  0  0  0  0  0  0  0  0
    4.6223   -8.3832   16.5030 C   0  0  0  0  0  0  0  0  0  0  0  0
   12.4690   -5.2624   19.9024 C   0  0  0  0  0  0  0  0  0  0  0  0
    3.2548   -9.9919   17.4189 C   0  0  0  0  0  0  0  0  0  0  0  0
   12.4767   -4.7393   22.1790 C   0  0  0  0  0  0  0  0  0  0  0  0
    7.8593   -5.3772   15.3569 N   0  0  0  0  0  0  0  0  0  0  0  0
    7.4412   -6.9038   16.9283 C   0  0  0  0  0  0  0  0  0  0  0  0
  1 21  4  0
  1 23  4  0
  2  5  1  0
  2 13  4  0
  2 16  4  0
  3  6  4  0
  3  7  4  0
  4 13  4  0
  4 19  4  0
  4 24  4  0
  6 23  4  0
  7 16  1  0
  7 21  4  0
  8 18  1  0
  9 20  4  0
  9 22  4  0
 10 17  1  0
 10 25  1  0
 11 16  4  0
 11 19  4  0
 12 15  4  0
 12 22  4  0
 14 24  4  0
 14 25  4  0
 15 17  4  0
 17 20  4  0
 18 23  1  0
 19 25  4  0
M  END
$$$$

 Created by Python create_sdf_string function

 25 28  0  0  0  0  0  0  0  0999 V2000
   13.1533   -5.2399   21.0682 C   0  0  0  0  0  0  0  0  0  0  0  0
   10.4729   -4.0295   17.6135 C   0  0  0  0  0  0  0  0  0  0  0  0
   10.4789   -4.3641   20.9564 C   0  0  0  0  0  0  0  0  0  0  0  0
    8.7421   -5.1412   16.3650 C   0  0  0  0  0  0  0  0  0  0  0  0
   11.4353   -2.9204   17.8044 C   0  0  0  0  0  0  0  0  0  0  0  0
   11.1529   -4.3028   22.1277 C   0  0  0  0  0  0  0  0  0  0  0  0
   11.1290   -4.8502   19.8052 C   0  0  0  0  0  0  0  0  0  0  0  0
   12.4329   -4.2159   24.4224 C   0  0  0  0  0  0  0  0  0  0  0  0
    3.4740   -9.0387   16.5022 C   0  0  0  0  0  0  0  0  0  0  0  0
    6.8384   -7.9290   17.5282 N   0  0  0  0  0  0  0  0  0  0  0  0
    9.4126   -5.9853   18.4899 C   0  0  0  0  0  0  0  0  0  0  0  0
    4.2064  -10.3242   18.3302 C   0  0  0  0  0  0  0  0  0  0  0  0
    9.6599   -4.1551   16.4796 N   0  0  0  0  0  0  0  0  0  0  0  0
    7.0644   -6.4612   15.7375 N   0  0  0  0  0  0  0  0  0  0  0  0
    5.3549   -9.6322   18.3190 C   0  0  0  0  0  0  0  0  0  0  0  0
   10.3704   -4.9638   18.6510 C   0  0  0  0  0  0  0  0  0  0  0  0
    5.5935   -8.6419   17.4234 C   0  0  0  0  0  0  0  0  0  0  0  0
   13.0726   -4.6648   23.3394 O   0  0  0  0  0  0  0  0  0  0  0  0
    8.5955   -6.0705   17.3996 C   0  0  0  0  0  0  0  0  0  0  0  0
    4.6223   -8.3832   16.5030 C   0  0  0  0  0  0  0  0  0  0  0  0
   12.4690   -5.2624   19.9024 C   0  0  0  0  0  0  0  0  0  0  0  0
    3.2548   -9.9919   17.4189 C   0  0  0  0  0  0  0  0  0  0  0  0
   12.4767   -4.7393   22.1790 C   0  0  0  0  0  0  0  0  0  0  0  0
    7.8593   -5.3772   15.3569 N   0  0  0  0  0  0  0  0  0  0  0  0
    7.4412   -6.9038   16.9283 C   0  0  0  0  0  0  0  0  0  0  0  0
  1 21  4  0
  1 23  4  0
  2  5  1  0
  2 13  4  0
  2 16  4  0
  3  6  4  0
  3  7  4  0
  4 13  4  0
  4 19  4  0
  4 24  4  0
  6 23  4  0
  7 16  1  0
  7 21  4  0
  8 18  1  0
  9 20  4  0
  9 22  4  0
 10 17  1  0
 10 25  1  0
 11 16  4  0
 11 19  4  0
 12 15  4  0
 12 22  4  0
 14 24  4  0
 14 25  4  0
 15 17  4  0
 17 20  4  0
 18 23  1  0
 19 25  4  0
M  END
$$$$

 Created by Python create_sdf_string function

 25 28  0  0  0  0  0  0  0  0999 V2000
   13.1533   -5.2399   21.0682 C   0  0  0  0  0  0  0  0  0  0  0  0
   10.4729   -4.0295   17.6135 C   0  0  0  0  0  0  0  0  0  0  0  0
   10.4789   -4.3641   20.9564 C   0  0  0  0  0  0  0  0  0  0  0  0
    8.7421   -5.1412   16.3650 C   0  0  0  0  0  0  0  0  0  0  0  0
   11.4353   -2.9204   17.8044 C   0  0  0  0  0  0  0  0  0  0  0  0
   11.1529   -4.3028   22.1277 C   0  0  0  0  0  0  0  0  0  0  0  0
   11.1290   -4.8502   19.8052 C   0  0  0  0  0  0  0  0  0  0  0  0
   12.4329   -4.2159   24.4224 C   0  0  0  0  0  0  0  0  0  0  0  0
    3.4740   -9.0387   16.5022 C   0  0  0  0  0  0  0  0  0  0  0  0
    6.8384   -7.9290   17.5282 N   0  0  0  0  0  0  0  0  0  0  0  0
    9.4126   -5.9853   18.4899 C   0  0  0  0  0  0  0  0  0  0  0  0
    4.2064  -10.3242   18.3302 C   0  0  0  0  0  0  0  0  0  0  0  0
    9.6599   -4.1551   16.4796 N   0  0  0  0  0  0  0  0  0  0  0  0
    7.0644   -6.4612   15.7375 N   0  0  0  0  0  0  0  0  0  0  0  0
    5.3549   -9.6322   18.3190 C   0  0  0  0  0  0  0  0  0  0  0  0
   10.3704   -4.9638   18.6510 C   0  0  0  0  0  0  0  0  0  0  0  0
    5.5935   -8.6419   17.4234 C   0  0  0  0  0  0  0  0  0  0  0  0
   13.0726   -4.6648   23.3394 O   0  0  0  0  0  0  0  0  0  0  0  0
    8.5955   -6.0705   17.3996 C   0  0  0  0  0  0  0  0  0  0  0  0
    4.6223   -8.3832   16.5030 C   0  0  0  0  0  0  0  0  0  0  0  0
   12.4690   -5.2624   19.9024 C   0  0  0  0  0  0  0  0  0  0  0  0
    3.2548   -9.9919   17.4189 C   0  0  0  0  0  0  0  0  0  0  0  0
   12.4767   -4.7393   22.1790 C   0  0  0  0  0  0  0  0  0  0  0  0
    7.8593   -5.3772   15.3569 N   0  0  0  0  0  0  0  0  0  0  0  0
    7.4412   -6.9038   16.9283 C   0  0  0  0  0  0  0  0  0  0  0  0
  1 21  4  0
  1 23  4  0
  2  5  1  0
  2 13  4  0
  2 16  4  0
  3  6  4  0
  3  7  4  0
  4 13  4  0
  4 19  4  0
  4 24  4  0
  6 23  4  0
  7 16  1  0
  7 21  4  0
  8 18  1  0
  9 20  4  0
  9 22  4  0
 10 17  1  0
 10 25  1  0
 11 16  4  0
 11 19  4  0
 12 15  4  0
 12 22  4  0
 14 24  4  0
 14 25  4  0
 15 17  4  0
 17 20  4  0
 18 23  1  0
 19 25  4  0
M  END
$$$$

 Created by Python create_sdf_string function

 25 28  0  0  0  0  0  0  0  0999 V2000
   13.1533   -5.2399   21.0682 C   0  0  0  0  0  0  0  0  0  0  0  0
   10.4729   -4.0295   17.6135 C   0  0  0  0  0  0  0  0  0  0  0  0
   10.4789   -4.3641   20.9564 C   0  0  0  0  0  0  0  0  0  0  0  0
    8.7421   -5.1412   16.3650 C   0  0  0  0  0  0  0  0  0  0  0  0
   11.4353   -2.9204   17.8044 C   0  0  0  0  0  0  0  0  0  0  0  0
   11.1529   -4.3028   22.1277 C   0  0  0  0  0  0  0  0  0  0  0  0
   11.1290   -4.8502   19.8052 C   0  0  0  0  0  0  0  0  0  0  0  0
   12.4329   -4.2159   24.4224 C   0  0  0  0  0  0  0  0  0  0  0  0
    3.4740   -9.0387   16.5022 C   0  0  0  0  0  0  0  0  0  0  0  0
    6.8384   -7.9290   17.5282 N   0  0  0  0  0  0  0  0  0  0  0  0
    9.4126   -5.9853   18.4899 C   0  0  0  0  0  0  0  0  0  0  0  0
    4.2064  -10.3242   18.3302 C   0  0  0  0  0  0  0  0  0  0  0  0
    9.6599   -4.1551   16.4796 N   0  0  0  0  0  0  0  0  0  0  0  0
    7.0644   -6.4612   15.7375 N   0  0  0  0  0  0  0  0  0  0  0  0
    5.3549   -9.6322   18.3190 C   0  0  0  0  0  0  0  0  0  0  0  0
   10.3704   -4.9638   18.6510 C   0  0  0  0  0  0  0  0  0  0  0  0
    5.5935   -8.6419   17.4234 C   0  0  0  0  0  0  0  0  0  0  0  0
   13.0726   -4.6648   23.3394 O   0  0  0  0  0  0  0  0  0  0  0  0
    8.5955   -6.0705   17.3996 C   0  0  0  0  0  0  0  0  0  0  0  0
    4.6223   -8.3832   16.5030 C   0  0  0  0  0  0  0  0  0  0  0  0
   12.4690   -5.2624   19.9024 C   0  0  0  0  0  0  0  0  0  0  0  0
    3.2548   -9.9919   17.4189 C   0  0  0  0  0  0  0  0  0  0  0  0
   12.4767   -4.7393   22.1790 C   0  0  0  0  0  0  0  0  0  0  0  0
    7.8593   -5.3772   15.3569 N   0  0  0  0  0  0  0  0  0  0  0  0
    7.4412   -6.9038   16.9283 C   0  0  0  0  0  0  0  0  0  0  0  0
  1 21  4  0
  1 23  4  0
  2  5  1  0
  2 13  4  0
  2 16  4  0
  3  6  4  0
  3  7  4  0
  4 13  4  0
  4 19  4  0
  4 24  4  0
  6 23  4  0
  7 16  1  0
  7 21  4  0
  8 18  1  0
  9 20  4  0
  9 22  4  0
 10 17  1  0
 10 25  1  0
 11 16  4  0
 11 19  4  0
 12 15  4  0
 12 22  4  0
 14 24  4  0
 14 25  4  0
 15 17  4  0
 17 20  4  0
 18 23  1  0
 19 25  4  0
M  END
$$$$

 Created by Python create_sdf_string function

 25 28  0  0  0  0  0  0  0  0999 V2000
   13.1533   -5.2399   21.0682 C   0  0  0  0  0  0  0  0  0  0  0  0
   10.4729   -4.0295   17.6135 C   0  0  0  0  0  0  0  0  0  0  0  0
   10.4789   -4.3641   20.9564 C   0  0  0  0  0  0  0  0  0  0  0  0
    8.7421   -5.1412   16.3650 C   0  0  0  0  0  0  0  0  0  0  0  0
   11.4353   -2.9204   17.8044 C   0  0  0  0  0  0  0  0  0  0  0  0
   11.1529   -4.3028   22.1277 C   0  0  0  0  0  0  0  0  0  0  0  0
   11.1290   -4.8502   19.8052 C   0  0  0  0  0  0  0  0  0  0  0  0
   12.4329   -4.2159   24.4224 C   0  0  0  0  0  0  0  0  0  0  0  0
    3.4740   -9.0387   16.5022 C   0  0  0  0  0  0  0  0  0  0  0  0
    6.8384   -7.9290   17.5282 N   0  0  0  0  0  0  0  0  0  0  0  0
    9.4126   -5.9853   18.4899 C   0  0  0  0  0  0  0  0  0  0  0  0
    4.2064  -10.3242   18.3302 C   0  0  0  0  0  0  0  0  0  0  0  0
    9.6599   -4.1551   16.4796 N   0  0  0  0  0  0  0  0  0  0  0  0
    7.0644   -6.4612   15.7375 N   0  0  0  0  0  0  0  0  0  0  0  0
    5.3549   -9.6322   18.3190 C   0  0  0  0  0  0  0  0  0  0  0  0
   10.3704   -4.9638   18.6510 C   0  0  0  0  0  0  0  0  0  0  0  0
    5.5935   -8.6419   17.4234 C   0  0  0  0  0  0  0  0  0  0  0  0
   13.0726   -4.6648   23.3394 O   0  0  0  0  0  0  0  0  0  0  0  0
    8.5955   -6.0705   17.3996 C   0  0  0  0  0  0  0  0  0  0  0  0
    4.6223   -8.3832   16.5030 C   0  0  0  0  0  0  0  0  0  0  0  0
   12.4690   -5.2624   19.9024 C   0  0  0  0  0  0  0  0  0  0  0  0
    3.2548   -9.9919   17.4189 C   0  0  0  0  0  0  0  0  0  0  0  0
   12.4767   -4.7393   22.1790 C   0  0  0  0  0  0  0  0  0  0  0  0
    7.8593   -5.3772   15.3569 N   0  0  0  0  0  0  0  0  0  0  0  0
    7.4412   -6.9038   16.9283 C   0  0  0  0  0  0  0  0  0  0  0  0
  1 21  4  0
  1 23  4  0
  2  5  1  0
  2 13  4  0
  2 16  4  0
  3  6  4  0
  3  7  4  0
  4 13  4  0
  4 19  4  0
  4 24  4  0
  6 23  4  0
  7 16  1  0
  7 21  4  0
  8 18  1  0
  9 20  4  0
  9 22  4  0
 10 17  1  0
 10 25  1  0
 11 16  4  0
 11 19  4  0
 12 15  4  0
 12 22  4  0
 14 24  4  0
 14 25  4  0
 15 17  4  0
 17 20  4  0
 18 23  1  0
 19 25  4  0
M  END
$$$$

 Created by Python create_sdf_string function

 25 28  0  0  0  0  0  0  0  0999 V2000
   13.1533   -5.2399   21.0682 C   0  0  0  0  0  0  0  0  0  0  0  0
   10.4729   -4.0295   17.6135 C   0  0  0  0  0  0  0  0  0  0  0  0
   10.4789   -4.3641   20.9564 C   0  0  0  0  0  0  0  0  0  0  0  0
    8.7421   -5.1412   16.3650 C   0  0  0  0  0  0  0  0  0  0  0  0
   11.4353   -2.9204   17.8044 C   0  0  0  0  0  0  0  0  0  0  0  0
   11.1529   -4.3028   22.1277 C   0  0  0  0  0  0  0  0  0  0  0  0
   11.1290   -4.8502   19.8052 C   0  0  0  0  0  0  0  0  0  0  0  0
   12.4329   -4.2159   24.4224 C   0  0  0  0  0  0  0  0  0  0  0  0
    3.4740   -9.0387   16.5022 C   0  0  0  0  0  0  0  0  0  0  0  0
    6.8384   -7.9290   17.5282 N   0  0  0  0  0  0  0  0  0  0  0  0
    9.4126   -5.9853   18.4899 C   0  0  0  0  0  0  0  0  0  0  0  0
    4.2064  -10.3242   18.3302 C   0  0  0  0  0  0  0  0  0  0  0  0
    9.6599   -4.1551   16.4796 N   0  0  0  0  0  0  0  0  0  0  0  0
    7.0644   -6.4612   15.7375 N   0  0  0  0  0  0  0  0  0  0  0  0
    5.3549   -9.6322   18.3190 C   0  0  0  0  0  0  0  0  0  0  0  0
   10.3704   -4.9638   18.6510 C   0  0  0  0  0  0  0  0  0  0  0  0
    5.5935   -8.6419   17.4234 C   0  0  0  0  0  0  0  0  0  0  0  0
   13.0726   -4.6648   23.3394 O   0  0  0  0  0  0  0  0  0  0  0  0
    8.5955   -6.0705   17.3996 C   0  0  0  0  0  0  0  0  0  0  0  0
    4.6223   -8.3832   16.5030 C   0  0  0  0  0  0  0  0  0  0  0  0
   12.4690   -5.2624   19.9024 C   0  0  0  0  0  0  0  0  0  0  0  0
    3.2548   -9.9919   17.4189 C   0  0  0  0  0  0  0  0  0  0  0  0
   12.4767   -4.7393   22.1790 C   0  0  0  0  0  0  0  0  0  0  0  0
    7.8593   -5.3772   15.3569 N   0  0  0  0  0  0  0  0  0  0  0  0
    7.4412   -6.9038   16.9283 C   0  0  0  0  0  0  0  0  0  0  0  0
  1 21  4  0
  1 23  4  0
  2  5  1  0
  2 13  4  0
  2 16  4  0
  3  6  4  0
  3  7  4  0
  4 13  4  0
  4 19  4  0
  4 24  4  0
  6 23  4  0
  7 16  1  0
  7 21  4  0
  8 18  1  0
  9 20  4  0
  9 22  4  0
 10 17  1  0
 10 25  1  0
 11 16  4  0
 11 19  4  0
 12 15  4  0
 12 22  4  0
 14 24  4  0
 14 25  4  0
 15 17  4  0
 17 20  4  0
 18 23  1  0
 19 25  4  0
M  END
$$$$

 Created by Python create_sdf_string function

 25 28  0  0  0  0  0  0  0  0999 V2000
   13.1533   -5.2399   21.0682 C   0  0  0  0  0  0  0  0  0  0  0  0
   10.4729   -4.0295   17.6135 C   0  0  0  0  0  0  0  0  0  0  0  0
   10.4789   -4.3641   20.9564 C   0  0  0  0  0  0  0  0  0  0  0  0
    8.7421   -5.1412   16.3650 C   0  0  0  0  0  0  0  0  0  0  0  0
   11.4353   -2.9204   17.8044 C   0  0  0  0  0  0  0  0  0  0  0  0
   11.1529   -4.3028   22.1277 C   0  0  0  0  0  0  0  0  0  0  0  0
   11.1290   -4.8502   19.8052 C   0  0  0  0  0  0  0  0  0  0  0  0
   12.4329   -4.2159   24.4224 C   0  0  0  0  0  0  0  0  0  0  0  0
    3.4740   -9.0387   16.5022 C   0  0  0  0  0  0  0  0  0  0  0  0
    6.8384   -7.9290   17.5282 N   0  0  0  0  0  0  0  0  0  0  0  0
    9.4126   -5.9853   18.4899 C   0  0  0  0  0  0  0  0  0  0  0  0
    4.2064  -10.3242   18.3302 C   0  0  0  0  0  0  0  0  0  0  0  0
    9.6599   -4.1551   16.4796 N   0  0  0  0  0  0  0  0  0  0  0  0
    7.0644   -6.4612   15.7375 N   0  0  0  0  0  0  0  0  0  0  0  0
    5.3549   -9.6322   18.3190 C   0  0  0  0  0  0  0  0  0  0  0  0
   10.3704   -4.9638   18.6510 C   0  0  0  0  0  0  0  0  0  0  0  0
    5.5935   -8.6419   17.4234 C   0  0  0  0  0  0  0  0  0  0  0  0
   13.0726   -4.6648   23.3394 O   0  0  0  0  0  0  0  0  0  0  0  0
    8.5955   -6.0705   17.3996 C   0  0  0  0  0  0  0  0  0  0  0  0
    4.6223   -8.3832   16.5030 C   0  0  0  0  0  0  0  0  0  0  0  0
   12.4690   -5.2624   19.9024 C   0  0  0  0  0  0  0  0  0  0  0  0
    3.2548   -9.9919   17.4189 C   0  0  0  0  0  0  0  0  0  0  0  0
   12.4767   -4.7393   22.1790 C   0  0  0  0  0  0  0  0  0  0  0  0
    7.8593   -5.3772   15.3569 N   0  0  0  0  0  0  0  0  0  0  0  0
    7.4412   -6.9038   16.9283 C   0  0  0  0  0  0  0  0  0  0  0  0
  1 21  4  0
  1 23  4  0
  2  5  1  0
  2 13  4  0
  2 16  4  0
  3  6  4  0
  3  7  4  0
  4 13  4  0
  4 19  4  0
  4 24  4  0
  6 23  4  0
  7 16  1  0
  7 21  4  0
  8 18  1  0
  9 20  4  0
  9 22  4  0
 10 17  1  0
 10 25  1  0
 11 16  4  0
 11 19  4  0
 12 15  4  0
 12 22  4  0
 14 24  4  0
 14 25  4  0
 15 17  4  0
 17 20  4  0
 18 23  1  0
 19 25  4  0
M  END
$$$$

 Created by Python create_sdf_string function

 25 28  0  0  0  0  0  0  0  0999 V2000
   13.1533   -5.2399   21.0682 C   0  0  0  0  0  0  0  0  0  0  0  0
   10.4729   -4.0295   17.6135 C   0  0  0  0  0  0  0  0  0  0  0  0
   10.4789   -4.3641   20.9564 C   0  0  0  0  0  0  0  0  0  0  0  0
    8.7421   -5.1412   16.3650 C   0  0  0  0  0  0  0  0  0  0  0  0
   11.4353   -2.9204   17.8044 C   0  0  0  0  0  0  0  0  0  0  0  0
   11.1529   -4.3028   22.1277 C   0  0  0  0  0  0  0  0  0  0  0  0
   11.1290   -4.8502   19.8052 C   0  0  0  0  0  0  0  0  0  0  0  0
   12.4329   -4.2159   24.4224 C   0  0  0  0  0  0  0  0  0  0  0  0
    3.4740   -9.0387   16.5022 C   0  0  0  0  0  0  0  0  0  0  0  0
    6.8384   -7.9290   17.5282 N   0  0  0  0  0  0  0  0  0  0  0  0
    9.4126   -5.9853   18.4899 C   0  0  0  0  0  0  0  0  0  0  0  0
    4.2064  -10.3242   18.3302 C   0  0  0  0  0  0  0  0  0  0  0  0
    9.6599   -4.1551   16.4796 N   0  0  0  0  0  0  0  0  0  0  0  0
    7.0644   -6.4612   15.7375 N   0  0  0  0  0  0  0  0  0  0  0  0
    5.3549   -9.6322   18.3190 C   0  0  0  0  0  0  0  0  0  0  0  0
   10.3704   -4.9638   18.6510 C   0  0  0  0  0  0  0  0  0  0  0  0
    5.5935   -8.6419   17.4234 C   0  0  0  0  0  0  0  0  0  0  0  0
   13.0726   -4.6648   23.3394 O   0  0  0  0  0  0  0  0  0  0  0  0
    8.5955   -6.0705   17.3996 C   0  0  0  0  0  0  0  0  0  0  0  0
    4.6223   -8.3832   16.5030 C   0  0  0  0  0  0  0  0  0  0  0  0
   12.4690   -5.2624   19.9024 C   0  0  0  0  0  0  0  0  0  0  0  0
    3.2548   -9.9919   17.4189 C   0  0  0  0  0  0  0  0  0  0  0  0
   12.4767   -4.7393   22.1790 C   0  0  0  0  0  0  0  0  0  0  0  0
    7.8593   -5.3772   15.3569 N   0  0  0  0  0  0  0  0  0  0  0  0
    7.4412   -6.9038   16.9283 C   0  0  0  0  0  0  0  0  0  0  0  0
  1 21  4  0
  1 23  4  0
  2  5  1  0
  2 13  4  0
  2 16  4  0
  3  6  4  0
  3  7  4  0
  4 13  4  0
  4 19  4  0
  4 24  4  0
  6 23  4  0
  7 16  1  0
  7 21  4  0
  8 18  1  0
  9 20  4  0
  9 22  4  0
 10 17  1  0
 10 25  1  0
 11 16  4  0
 11 19  4  0
 12 15  4  0
 12 22  4  0
 14 24  4  0
 14 25  4  0
 15 17  4  0
 17 20  4  0
 18 23  1  0
 19 25  4  0
M  END
$$$$

 Created by Python create_sdf_string function

 25 28  0  0  0  0  0  0  0  0999 V2000
   13.1533   -5.2399   21.0682 C   0  0  0  0  0  0  0  0  0  0  0  0
   10.4729   -4.0295   17.6135 C   0  0  0  0  0  0  0  0  0  0  0  0
   10.4789   -4.3641   20.9564 C   0  0  0  0  0  0  0  0  0  0  0  0
    8.7421   -5.1412   16.3650 C   0  0  0  0  0  0  0  0  0  0  0  0
   11.4353   -2.9204   17.8044 C   0  0  0  0  0  0  0  0  0  0  0  0
   11.1529   -4.3028   22.1277 C   0  0  0  0  0  0  0  0  0  0  0  0
   11.1290   -4.8502   19.8052 C   0  0  0  0  0  0  0  0  0  0  0  0
   12.4329   -4.2159   24.4224 C   0  0  0  0  0  0  0  0  0  0  0  0
    3.4740   -9.0387   16.5022 C   0  0  0  0  0  0  0  0  0  0  0  0
    6.8384   -7.9290   17.5282 N   0  0  0  0  0  0  0  0  0  0  0  0
    9.4126   -5.9853   18.4899 C   0  0  0  0  0  0  0  0  0  0  0  0
    4.2064  -10.3242   18.3302 C   0  0  0  0  0  0  0  0  0  0  0  0
    9.6599   -4.1551   16.4796 N   0  0  0  0  0  0  0  0  0  0  0  0
    7.0644   -6.4612   15.7375 N   0  0  0  0  0  0  0  0  0  0  0  0
    5.3549   -9.6322   18.3190 C   0  0  0  0  0  0  0  0  0  0  0  0
   10.3704   -4.9638   18.6510 C   0  0  0  0  0  0  0  0  0  0  0  0
    5.5935   -8.6419   17.4234 C   0  0  0  0  0  0  0  0  0  0  0  0
   13.0726   -4.6648   23.3394 O   0  0  0  0  0  0  0  0  0  0  0  0
    8.5955   -6.0705   17.3996 C   0  0  0  0  0  0  0  0  0  0  0  0
    4.6223   -8.3832   16.5030 C   0  0  0  0  0  0  0  0  0  0  0  0
   12.4690   -5.2624   19.9024 C   0  0  0  0  0  0  0  0  0  0  0  0
    3.2548   -9.9919   17.4189 C   0  0  0  0  0  0  0  0  0  0  0  0
   12.4767   -4.7393   22.1790 C   0  0  0  0  0  0  0  0  0  0  0  0
    7.8593   -5.3772   15.3569 N   0  0  0  0  0  0  0  0  0  0  0  0
    7.4412   -6.9038   16.9283 C   0  0  0  0  0  0  0  0  0  0  0  0
  1 21  4  0
  1 23  4  0
  2  5  1  0
  2 13  4  0
  2 16  4  0
  3  6  4  0
  3  7  4  0
  4 13  4  0
  4 19  4  0
  4 24  4  0
  6 23  4  0
  7 16  1  0
  7 21  4  0
  8 18  1  0
  9 20  4  0
  9 22  4  0
 10 17  1  0
 10 25  1  0
 11 16  4  0
 11 19  4  0
 12 15  4  0
 12 22  4  0
 14 24  4  0
 14 25  4  0
 15 17  4  0
 17 20  4  0
 18 23  1  0
 19 25  4  0
M  END
$$$$

 Created by Python create_sdf_string function

 25 28  0  0  0  0  0  0  0  0999 V2000
   13.1533   -5.2399   21.0682 C   0  0  0  0  0  0  0  0  0  0  0  0
   10.4729   -4.0295   17.6135 C   0  0  0  0  0  0  0  0  0  0  0  0
   10.4789   -4.3641   20.9564 C   0  0  0  0  0  0  0  0  0  0  0  0
    8.7421   -5.1412   16.3650 C   0  0  0  0  0  0  0  0  0  0  0  0
   11.4353   -2.9204   17.8044 C   0  0  0  0  0  0  0  0  0  0  0  0
   11.1529   -4.3028   22.1277 C   0  0  0  0  0  0  0  0  0  0  0  0
   11.1290   -4.8502   19.8052 C   0  0  0  0  0  0  0  0  0  0  0  0
   12.4329   -4.2159   24.4224 C   0  0  0  0  0  0  0  0  0  0  0  0
    3.4740   -9.0387   16.5022 C   0  0  0  0  0  0  0  0  0  0  0  0
    6.8384   -7.9290   17.5282 N   0  0  0  0  0  0  0  0  0  0  0  0
    9.4126   -5.9853   18.4899 C   0  0  0  0  0  0  0  0  0  0  0  0
    4.2064  -10.3242   18.3302 C   0  0  0  0  0  0  0  0  0  0  0  0
    9.6599   -4.1551   16.4796 N   0  0  0  0  0  0  0  0  0  0  0  0
    7.0644   -6.4612   15.7375 N   0  0  0  0  0  0  0  0  0  0  0  0
    5.3549   -9.6322   18.3190 C   0  0  0  0  0  0  0  0  0  0  0  0
   10.3704   -4.9638   18.6510 C   0  0  0  0  0  0  0  0  0  0  0  0
    5.5935   -8.6419   17.4234 C   0  0  0  0  0  0  0  0  0  0  0  0
   13.0726   -4.6648   23.3394 O   0  0  0  0  0  0  0  0  0  0  0  0
    8.5955   -6.0705   17.3996 C   0  0  0  0  0  0  0  0  0  0  0  0
    4.6223   -8.3832   16.5030 C   0  0  0  0  0  0  0  0  0  0  0  0
   12.4690   -5.2624   19.9024 C   0  0  0  0  0  0  0  0  0  0  0  0
    3.2548   -9.9919   17.4189 C   0  0  0  0  0  0  0  0  0  0  0  0
   12.4767   -4.7393   22.1790 C   0  0  0  0  0  0  0  0  0  0  0  0
    7.8593   -5.3772   15.3569 N   0  0  0  0  0  0  0  0  0  0  0  0
    7.4412   -6.9038   16.9283 C   0  0  0  0  0  0  0  0  0  0  0  0
  1 21  4  0
  1 23  4  0
  2  5  1  0
  2 13  4  0
  2 16  4  0
  3  6  4  0
  3  7  4  0
  4 13  4  0
  4 19  4  0
  4 24  4  0
  6 23  4  0
  7 16  1  0
  7 21  4  0
  8 18  1  0
  9 20  4  0
  9 22  4  0
 10 17  1  0
 10 25  1  0
 11 16  4  0
 11 19  4  0
 12 15  4  0
 12 22  4  0
 14 24  4  0
 14 25  4  0
 15 17  4  0
 17 20  4  0
 18 23  1  0
 19 25  4  0
M  END
$$$$

 Created by Python create_sdf_string function

 25 28  0  0  0  0  0  0  0  0999 V2000
   13.1533   -5.2399   21.0682 C   0  0  0  0  0  0  0  0  0  0  0  0
   10.4729   -4.0295   17.6135 C   0  0  0  0  0  0  0  0  0  0  0  0
   10.4789   -4.3641   20.9564 C   0  0  0  0  0  0  0  0  0  0  0  0
    8.7421   -5.1412   16.3650 C   0  0  0  0  0  0  0  0  0  0  0  0
   11.4353   -2.9204   17.8044 C   0  0  0  0  0  0  0  0  0  0  0  0
   11.1529   -4.3028   22.1277 C   0  0  0  0  0  0  0  0  0  0  0  0
   11.1290   -4.8502   19.8052 C   0  0  0  0  0  0  0  0  0  0  0  0
   12.4329   -4.2159   24.4224 C   0  0  0  0  0  0  0  0  0  0  0  0
    3.4740   -9.0387   16.5022 C   0  0  0  0  0  0  0  0  0  0  0  0
    6.8384   -7.9290   17.5282 N   0  0  0  0  0  0  0  0  0  0  0  0
    9.4126   -5.9853   18.4899 C   0  0  0  0  0  0  0  0  0  0  0  0
    4.2064  -10.3242   18.3302 C   0  0  0  0  0  0  0  0  0  0  0  0
    9.6599   -4.1551   16.4796 N   0  0  0  0  0  0  0  0  0  0  0  0
    7.0644   -6.4612   15.7375 N   0  0  0  0  0  0  0  0  0  0  0  0
    5.3549   -9.6322   18.3190 C   0  0  0  0  0  0  0  0  0  0  0  0
   10.3704   -4.9638   18.6510 C   0  0  0  0  0  0  0  0  0  0  0  0
    5.5935   -8.6419   17.4234 C   0  0  0  0  0  0  0  0  0  0  0  0
   13.0726   -4.6648   23.3394 O   0  0  0  0  0  0  0  0  0  0  0  0
    8.5955   -6.0705   17.3996 C   0  0  0  0  0  0  0  0  0  0  0  0
    4.6223   -8.3832   16.5030 C   0  0  0  0  0  0  0  0  0  0  0  0
   12.4690   -5.2624   19.9024 C   0  0  0  0  0  0  0  0  0  0  0  0
    3.2548   -9.9919   17.4189 C   0  0  0  0  0  0  0  0  0  0  0  0
   12.4767   -4.7393   22.1790 C   0  0  0  0  0  0  0  0  0  0  0  0
    7.8593   -5.3772   15.3569 N   0  0  0  0  0  0  0  0  0  0  0  0
    7.4412   -6.9038   16.9283 C   0  0  0  0  0  0  0  0  0  0  0  0
  1 21  4  0
  1 23  4  0
  2  5  1  0
  2 13  4  0
  2 16  4  0
  3  6  4  0
  3  7  4  0
  4 13  4  0
  4 19  4  0
  4 24  4  0
  6 23  4  0
  7 16  1  0
  7 21  4  0
  8 18  1  0
  9 20  4  0
  9 22  4  0
 10 17  1  0
 10 25  1  0
 11 16  4  0
 11 19  4  0
 12 15  4  0
 12 22  4  0
 14 24  4  0
 14 25  4  0
 15 17  4  0
 17 20  4  0
 18 23  1  0
 19 25  4  0
M  END
$$$$

 Created by Python create_sdf_string function

 25 28  0  0  0  0  0  0  0  0999 V2000
   13.1533   -5.2399   21.0682 C   0  0  0  0  0  0  0  0  0  0  0  0
   10.4729   -4.0295   17.6135 C   0  0  0  0  0  0  0  0  0  0  0  0
   10.4789   -4.3641   20.9564 C   0  0  0  0  0  0  0  0  0  0  0  0
    8.7421   -5.1412   16.3650 C   0  0  0  0  0  0  0  0  0  0  0  0
   11.4353   -2.9204   17.8044 C   0  0  0  0  0  0  0  0  0  0  0  0
   11.1529   -4.3028   22.1277 C   0  0  0  0  0  0  0  0  0  0  0  0
   11.1290   -4.8502   19.8052 C   0  0  0  0  0  0  0  0  0  0  0  0
   12.4329   -4.2159   24.4224 C   0  0  0  0  0  0  0  0  0  0  0  0
    3.4740   -9.0387   16.5022 C   0  0  0  0  0  0  0  0  0  0  0  0
    6.8384   -7.9290   17.5282 N   0  0  0  0  0  0  0  0  0  0  0  0
    9.4126   -5.9853   18.4899 C   0  0  0  0  0  0  0  0  0  0  0  0
    4.2064  -10.3242   18.3302 C   0  0  0  0  0  0  0  0  0  0  0  0
    9.6599   -4.1551   16.4796 N   0  0  0  0  0  0  0  0  0  0  0  0
    7.0644   -6.4612   15.7375 N   0  0  0  0  0  0  0  0  0  0  0  0
    5.3549   -9.6322   18.3190 C   0  0  0  0  0  0  0  0  0  0  0  0
   10.3704   -4.9638   18.6510 C   0  0  0  0  0  0  0  0  0  0  0  0
    5.5935   -8.6419   17.4234 C   0  0  0  0  0  0  0  0  0  0  0  0
   13.0726   -4.6648   23.3394 O   0  0  0  0  0  0  0  0  0  0  0  0
    8.5955   -6.0705   17.3996 C   0  0  0  0  0  0  0  0  0  0  0  0
    4.6223   -8.3832   16.5030 C   0  0  0  0  0  0  0  0  0  0  0  0
   12.4690   -5.2624   19.9024 C   0  0  0  0  0  0  0  0  0  0  0  0
    3.2548   -9.9919   17.4189 C   0  0  0  0  0  0  0  0  0  0  0  0
   12.4767   -4.7393   22.1790 C   0  0  0  0  0  0  0  0  0  0  0  0
    7.8593   -5.3772   15.3569 N   0  0  0  0  0  0  0  0  0  0  0  0
    7.4412   -6.9038   16.9283 C   0  0  0  0  0  0  0  0  0  0  0  0
  1 21  4  0
  1 23  4  0
  2  5  1  0
  2 13  4  0
  2 16  4  0
  3  6  4  0
  3  7  4  0
  4 13  4  0
  4 19  4  0
  4 24  4  0
  6 23  4  0
  7 16  1  0
  7 21  4  0
  8 18  1  0
  9 20  4  0
  9 22  4  0
 10 17  1  0
 10 25  1  0
 11 16  4  0
 11 19  4  0
 12 15  4  0
 12 22  4  0
 14 24  4  0
 14 25  4  0
 15 17  4  0
 17 20  4  0
 18 23  1  0
 19 25  4  0
M  END
$$$$

 Created by Python create_sdf_string function

 25 28  0  0  0  0  0  0  0  0999 V2000
   13.1533   -5.2399   21.0682 C   0  0  0  0  0  0  0  0  0  0  0  0
   10.4729   -4.0295   17.6135 C   0  0  0  0  0  0  0  0  0  0  0  0
   10.4789   -4.3641   20.9564 C   0  0  0  0  0  0  0  0  0  0  0  0
    8.7421   -5.1412   16.3650 C   0  0  0  0  0  0  0  0  0  0  0  0
   11.4353   -2.9204   17.8044 C   0  0  0  0  0  0  0  0  0  0  0  0
   11.1529   -4.3028   22.1277 C   0  0  0  0  0  0  0  0  0  0  0  0
   11.1290   -4.8502   19.8052 C   0  0  0  0  0  0  0  0  0  0  0  0
   12.4329   -4.2159   24.4224 C   0  0  0  0  0  0  0  0  0  0  0  0
    3.4740   -9.0387   16.5022 C   0  0  0  0  0  0  0  0  0  0  0  0
    6.8384   -7.9290   17.5282 N   0  0  0  0  0  0  0  0  0  0  0  0
    9.4126   -5.9853   18.4899 C   0  0  0  0  0  0  0  0  0  0  0  0
    4.2064  -10.3242   18.3302 C   0  0  0  0  0  0  0  0  0  0  0  0
    9.6599   -4.1551   16.4796 N   0  0  0  0  0  0  0  0  0  0  0  0
    7.0644   -6.4612   15.7375 N   0  0  0  0  0  0  0  0  0  0  0  0
    5.3549   -9.6322   18.3190 C   0  0  0  0  0  0  0  0  0  0  0  0
   10.3704   -4.9638   18.6510 C   0  0  0  0  0  0  0  0  0  0  0  0
    5.5935   -8.6419   17.4234 C   0  0  0  0  0  0  0  0  0  0  0  0
   13.0726   -4.6648   23.3394 O   0  0  0  0  0  0  0  0  0  0  0  0
    8.5955   -6.0705   17.3996 C   0  0  0  0  0  0  0  0  0  0  0  0
    4.6223   -8.3832   16.5030 C   0  0  0  0  0  0  0  0  0  0  0  0
   12.4690   -5.2624   19.9024 C   0  0  0  0  0  0  0  0  0  0  0  0
    3.2548   -9.9919   17.4189 C   0  0  0  0  0  0  0  0  0  0  0  0
   12.4767   -4.7393   22.1790 C   0  0  0  0  0  0  0  0  0  0  0  0
    7.8593   -5.3772   15.3569 N   0  0  0  0  0  0  0  0  0  0  0  0
    7.4412   -6.9038   16.9283 C   0  0  0  0  0  0  0  0  0  0  0  0
  1 21  4  0
  1 23  4  0
  2  5  1  0
  2 13  4  0
  2 16  4  0
  3  6  4  0
  3  7  4  0
  4 13  4  0
  4 19  4  0
  4 24  4  0
  6 23  4  0
  7 16  1  0
  7 21  4  0
  8 18  1  0
  9 20  4  0
  9 22  4  0
 10 17  1  0
 10 25  1  0
 11 16  4  0
 11 19  4  0
 12 15  4  0
 12 22  4  0
 14 24  4  0
 14 25  4  0
 15 17  4  0
 17 20  4  0
 18 23  1  0
 19 25  4  0
M  END
$$$$

 Created by Python create_sdf_string function

 25 28  0  0  0  0  0  0  0  0999 V2000
   13.1533   -5.2399   21.0682 C   0  0  0  0  0  0  0  0  0  0  0  0
   10.4729   -4.0295   17.6135 C   0  0  0  0  0  0  0  0  0  0  0  0
   10.4789   -4.3641   20.9564 C   0  0  0  0  0  0  0  0  0  0  0  0
    8.7421   -5.1412   16.3650 C   0  0  0  0  0  0  0  0  0  0  0  0
   11.4353   -2.9204   17.8044 C   0  0  0  0  0  0  0  0  0  0  0  0
   11.1529   -4.3028   22.1277 C   0  0  0  0  0  0  0  0  0  0  0  0
   11.1290   -4.8502   19.8052 C   0  0  0  0  0  0  0  0  0  0  0  0
   12.4329   -4.2159   24.4224 C   0  0  0  0  0  0  0  0  0  0  0  0
    3.4740   -9.0387   16.5022 C   0  0  0  0  0  0  0  0  0  0  0  0
    6.8384   -7.9290   17.5282 N   0  0  0  0  0  0  0  0  0  0  0  0
    9.4126   -5.9853   18.4899 C   0  0  0  0  0  0  0  0  0  0  0  0
    4.2064  -10.3242   18.3302 C   0  0  0  0  0  0  0  0  0  0  0  0
    9.6599   -4.1551   16.4796 N   0  0  0  0  0  0  0  0  0  0  0  0
    7.0644   -6.4612   15.7375 N   0  0  0  0  0  0  0  0  0  0  0  0
    5.3549   -9.6322   18.3190 C   0  0  0  0  0  0  0  0  0  0  0  0
   10.3704   -4.9638   18.6510 C   0  0  0  0  0  0  0  0  0  0  0  0
    5.5935   -8.6419   17.4234 C   0  0  0  0  0  0  0  0  0  0  0  0
   13.0726   -4.6648   23.3394 O   0  0  0  0  0  0  0  0  0  0  0  0
    8.5955   -6.0705   17.3996 C   0  0  0  0  0  0  0  0  0  0  0  0
    4.6223   -8.3832   16.5030 C   0  0  0  0  0  0  0  0  0  0  0  0
   12.4690   -5.2624   19.9024 C   0  0  0  0  0  0  0  0  0  0  0  0
    3.2548   -9.9919   17.4189 C   0  0  0  0  0  0  0  0  0  0  0  0
   12.4767   -4.7393   22.1790 C   0  0  0  0  0  0  0  0  0  0  0  0
    7.8593   -5.3772   15.3569 N   0  0  0  0  0  0  0  0  0  0  0  0
    7.4412   -6.9038   16.9283 C   0  0  0  0  0  0  0  0  0  0  0  0
  1 21  4  0
  1 23  4  0
  2  5  1  0
  2 13  4  0
  2 16  4  0
  3  6  4  0
  3  7  4  0
  4 13  4  0
  4 19  4  0
  4 24  4  0
  6 23  4  0
  7 16  1  0
  7 21  4  0
  8 18  1  0
  9 20  4  0
  9 22  4  0
 10 17  1  0
 10 25  1  0
 11 16  4  0
 11 19  4  0
 12 15  4  0
 12 22  4  0
 14 24  4  0
 14 25  4  0
 15 17  4  0
 17 20  4  0
 18 23  1  0
 19 25  4  0
M  END
$$$$

 Created by Python create_sdf_string function

 25 28  0  0  0  0  0  0  0  0999 V2000
   13.1533   -5.2399   21.0682 C   0  0  0  0  0  0  0  0  0  0  0  0
   10.4729   -4.0295   17.6135 C   0  0  0  0  0  0  0  0  0  0  0  0
   10.4789   -4.3641   20.9564 C   0  0  0  0  0  0  0  0  0  0  0  0
    8.7421   -5.1412   16.3650 C   0  0  0  0  0  0  0  0  0  0  0  0
   11.4353   -2.9204   17.8044 C   0  0  0  0  0  0  0  0  0  0  0  0
   11.1529   -4.3028   22.1277 C   0  0  0  0  0  0  0  0  0  0  0  0
   11.1290   -4.8502   19.8052 C   0  0  0  0  0  0  0  0  0  0  0  0
   12.4329   -4.2159   24.4224 C   0  0  0  0  0  0  0  0  0  0  0  0
    3.4740   -9.0387   16.5022 C   0  0  0  0  0  0  0  0  0  0  0  0
    6.8384   -7.9290   17.5282 N   0  0  0  0  0  0  0  0  0  0  0  0
    9.4126   -5.9853   18.4899 C   0  0  0  0  0  0  0  0  0  0  0  0
    4.2064  -10.3242   18.3302 C   0  0  0  0  0  0  0  0  0  0  0  0
    9.6599   -4.1551   16.4796 N   0  0  0  0  0  0  0  0  0  0  0  0
    7.0644   -6.4612   15.7375 N   0  0  0  0  0  0  0  0  0  0  0  0
    5.3549   -9.6322   18.3190 C   0  0  0  0  0  0  0  0  0  0  0  0
   10.3704   -4.9638   18.6510 C   0  0  0  0  0  0  0  0  0  0  0  0
    5.5935   -8.6419   17.4234 C   0  0  0  0  0  0  0  0  0  0  0  0
   13.0726   -4.6648   23.3394 O   0  0  0  0  0  0  0  0  0  0  0  0
    8.5955   -6.0705   17.3996 C   0  0  0  0  0  0  0  0  0  0  0  0
    4.6223   -8.3832   16.5030 C   0  0  0  0  0  0  0  0  0  0  0  0
   12.4690   -5.2624   19.9024 C   0  0  0  0  0  0  0  0  0  0  0  0
    3.2548   -9.9919   17.4189 C   0  0  0  0  0  0  0  0  0  0  0  0
   12.4767   -4.7393   22.1790 C   0  0  0  0  0  0  0  0  0  0  0  0
    7.8593   -5.3772   15.3569 N   0  0  0  0  0  0  0  0  0  0  0  0
    7.4412   -6.9038   16.9283 C   0  0  0  0  0  0  0  0  0  0  0  0
  1 21  4  0
  1 23  4  0
  2  5  1  0
  2 13  4  0
  2 16  4  0
  3  6  4  0
  3  7  4  0
  4 13  4  0
  4 19  4  0
  4 24  4  0
  6 23  4  0
  7 16  1  0
  7 21  4  0
  8 18  1  0
  9 20  4  0
  9 22  4  0
 10 17  1  0
 10 25  1  0
 11 16  4  0
 11 19  4  0
 12 15  4  0
 12 22  4  0
 14 24  4  0
 14 25  4  0
 15 17  4  0
 17 20  4  0
 18 23  1  0
 19 25  4  0
M  END
$$$$

 Created by Python create_sdf_string function

 25 28  0  0  0  0  0  0  0  0999 V2000
   13.1533   -5.2399   21.0682 C   0  0  0  0  0  0  0  0  0  0  0  0
   10.4729   -4.0295   17.6135 C   0  0  0  0  0  0  0  0  0  0  0  0
   10.4789   -4.3641   20.9564 C   0  0  0  0  0  0  0  0  0  0  0  0
    8.7421   -5.1412   16.3650 C   0  0  0  0  0  0  0  0  0  0  0  0
   11.4353   -2.9204   17.8044 C   0  0  0  0  0  0  0  0  0  0  0  0
   11.1529   -4.3028   22.1277 C   0  0  0  0  0  0  0  0  0  0  0  0
   11.1290   -4.8502   19.8052 C   0  0  0  0  0  0  0  0  0  0  0  0
   12.4329   -4.2159   24.4224 C   0  0  0  0  0  0  0  0  0  0  0  0
    3.4740   -9.0387   16.5022 C   0  0  0  0  0  0  0  0  0  0  0  0
    6.8384   -7.9290   17.5282 N   0  0  0  0  0  0  0  0  0  0  0  0
    9.4126   -5.9853   18.4899 C   0  0  0  0  0  0  0  0  0  0  0  0
    4.2064  -10.3242   18.3302 C   0  0  0  0  0  0  0  0  0  0  0  0
    9.6599   -4.1551   16.4796 N   0  0  0  0  0  0  0  0  0  0  0  0
    7.0644   -6.4612   15.7375 N   0  0  0  0  0  0  0  0  0  0  0  0
    5.3549   -9.6322   18.3190 C   0  0  0  0  0  0  0  0  0  0  0  0
   10.3704   -4.9638   18.6510 C   0  0  0  0  0  0  0  0  0  0  0  0
    5.5935   -8.6419   17.4234 C   0  0  0  0  0  0  0  0  0  0  0  0
   13.0726   -4.6648   23.3394 O   0  0  0  0  0  0  0  0  0  0  0  0
    8.5955   -6.0705   17.3996 C   0  0  0  0  0  0  0  0  0  0  0  0
    4.6223   -8.3832   16.5030 C   0  0  0  0  0  0  0  0  0  0  0  0
   12.4690   -5.2624   19.9024 C   0  0  0  0  0  0  0  0  0  0  0  0
    3.2548   -9.9919   17.4189 C   0  0  0  0  0  0  0  0  0  0  0  0
   12.4767   -4.7393   22.1790 C   0  0  0  0  0  0  0  0  0  0  0  0
    7.8593   -5.3772   15.3569 N   0  0  0  0  0  0  0  0  0  0  0  0
    7.4412   -6.9038   16.9283 C   0  0  0  0  0  0  0  0  0  0  0  0
  1 21  4  0
  1 23  4  0
  2  5  1  0
  2 13  4  0
  2 16  4  0
  3  6  4  0
  3  7  4  0
  4 13  4  0
  4 19  4  0
  4 24  4  0
  6 23  4  0
  7 16  1  0
  7 21  4  0
  8 18  1  0
  9 20  4  0
  9 22  4  0
 10 17  1  0
 10 25  1  0
 11 16  4  0
 11 19  4  0
 12 15  4  0
 12 22  4  0
 14 24  4  0
 14 25  4  0
 15 17  4  0
 17 20  4  0
 18 23  1  0
 19 25  4  0
M  END
$$$$

 Created by Python create_sdf_string function

 25 28  0  0  0  0  0  0  0  0999 V2000
   13.1533   -5.2399   21.0682 C   0  0  0  0  0  0  0  0  0  0  0  0
   10.4729   -4.0295   17.6135 C   0  0  0  0  0  0  0  0  0  0  0  0
   10.4789   -4.3641   20.9564 C   0  0  0  0  0  0  0  0  0  0  0  0
    8.7421   -5.1412   16.3650 C   0  0  0  0  0  0  0  0  0  0  0  0
   11.4353   -2.9204   17.8044 C   0  0  0  0  0  0  0  0  0  0  0  0
   11.1529   -4.3028   22.1277 C   0  0  0  0  0  0  0  0  0  0  0  0
   11.1290   -4.8502   19.8052 C   0  0  0  0  0  0  0  0  0  0  0  0
   12.4329   -4.2159   24.4224 C   0  0  0  0  0  0  0  0  0  0  0  0
    3.4740   -9.0387   16.5022 C   0  0  0  0  0  0  0  0  0  0  0  0
    6.8384   -7.9290   17.5282 N   0  0  0  0  0  0  0  0  0  0  0  0
    9.4126   -5.9853   18.4899 C   0  0  0  0  0  0  0  0  0  0  0  0
    4.2064  -10.3242   18.3302 C   0  0  0  0  0  0  0  0  0  0  0  0
    9.6599   -4.1551   16.4796 N   0  0  0  0  0  0  0  0  0  0  0  0
    7.0644   -6.4612   15.7375 N   0  0  0  0  0  0  0  0  0  0  0  0
    5.3549   -9.6322   18.3190 C   0  0  0  0  0  0  0  0  0  0  0  0
   10.3704   -4.9638   18.6510 C   0  0  0  0  0  0  0  0  0  0  0  0
    5.5935   -8.6419   17.4234 C   0  0  0  0  0  0  0  0  0  0  0  0
   13.0726   -4.6648   23.3394 O   0  0  0  0  0  0  0  0  0  0  0  0
    8.5955   -6.0705   17.3996 C   0  0  0  0  0  0  0  0  0  0  0  0
    4.6223   -8.3832   16.5030 C   0  0  0  0  0  0  0  0  0  0  0  0
   12.4690   -5.2624   19.9024 C   0  0  0  0  0  0  0  0  0  0  0  0
    3.2548   -9.9919   17.4189 C   0  0  0  0  0  0  0  0  0  0  0  0
   12.4767   -4.7393   22.1790 C   0  0  0  0  0  0  0  0  0  0  0  0
    7.8593   -5.3772   15.3569 N   0  0  0  0  0  0  0  0  0  0  0  0
    7.4412   -6.9038   16.9283 C   0  0  0  0  0  0  0  0  0  0  0  0
  1 21  4  0
  1 23  4  0
  2  5  1  0
  2 13  4  0
  2 16  4  0
  3  6  4  0
  3  7  4  0
  4 13  4  0
  4 19  4  0
  4 24  4  0
  6 23  4  0
  7 16  1  0
  7 21  4  0
  8 18  1  0
  9 20  4  0
  9 22  4  0
 10 17  1  0
 10 25  1  0
 11 16  4  0
 11 19  4  0
 12 15  4  0
 12 22  4  0
 14 24  4  0
 14 25  4  0
 15 17  4  0
 17 20  4  0
 18 23  1  0
 19 25  4  0
M  END
$$$$

 Created by Python create_sdf_string function

 25 28  0  0  0  0  0  0  0  0999 V2000
   13.1533   -5.2399   21.0682 C   0  0  0  0  0  0  0  0  0  0  0  0
   10.4729   -4.0295   17.6135 C   0  0  0  0  0  0  0  0  0  0  0  0
   10.4789   -4.3641   20.9564 C   0  0  0  0  0  0  0  0  0  0  0  0
    8.7421   -5.1412   16.3650 C   0  0  0  0  0  0  0  0  0  0  0  0
   11.4353   -2.9204   17.8044 C   0  0  0  0  0  0  0  0  0  0  0  0
   11.1529   -4.3028   22.1277 C   0  0  0  0  0  0  0  0  0  0  0  0
   11.1290   -4.8502   19.8052 C   0  0  0  0  0  0  0  0  0  0  0  0
   12.4329   -4.2159   24.4224 C   0  0  0  0  0  0  0  0  0  0  0  0
    3.4740   -9.0387   16.5022 C   0  0  0  0  0  0  0  0  0  0  0  0
    6.8384   -7.9290   17.5282 N   0  0  0  0  0  0  0  0  0  0  0  0
    9.4126   -5.9853   18.4899 C   0  0  0  0  0  0  0  0  0  0  0  0
    4.2064  -10.3242   18.3302 C   0  0  0  0  0  0  0  0  0  0  0  0
    9.6599   -4.1551   16.4796 N   0  0  0  0  0  0  0  0  0  0  0  0
    7.0644   -6.4612   15.7375 N   0  0  0  0  0  0  0  0  0  0  0  0
    5.3549   -9.6322   18.3190 C   0  0  0  0  0  0  0  0  0  0  0  0
   10.3704   -4.9638   18.6510 C   0  0  0  0  0  0  0  0  0  0  0  0
    5.5935   -8.6419   17.4234 C   0  0  0  0  0  0  0  0  0  0  0  0
   13.0726   -4.6648   23.3394 O   0  0  0  0  0  0  0  0  0  0  0  0
    8.5955   -6.0705   17.3996 C   0  0  0  0  0  0  0  0  0  0  0  0
    4.6223   -8.3832   16.5030 C   0  0  0  0  0  0  0  0  0  0  0  0
   12.4690   -5.2624   19.9024 C   0  0  0  0  0  0  0  0  0  0  0  0
    3.2548   -9.9919   17.4189 C   0  0  0  0  0  0  0  0  0  0  0  0
   12.4767   -4.7393   22.1790 C   0  0  0  0  0  0  0  0  0  0  0  0
    7.8593   -5.3772   15.3569 N   0  0  0  0  0  0  0  0  0  0  0  0
    7.4412   -6.9038   16.9283 C   0  0  0  0  0  0  0  0  0  0  0  0
  1 21  4  0
  1 23  4  0
  2  5  1  0
  2 13  4  0
  2 16  4  0
  3  6  4  0
  3  7  4  0
  4 13  4  0
  4 19  4  0
  4 24  4  0
  6 23  4  0
  7 16  1  0
  7 21  4  0
  8 18  1  0
  9 20  4  0
  9 22  4  0
 10 17  1  0
 10 25  1  0
 11 16  4  0
 11 19  4  0
 12 15  4  0
 12 22  4  0
 14 24  4  0
 14 25  4  0
 15 17  4  0
 17 20  4  0
 18 23  1  0
 19 25  4  0
M  END
$$$$

 Created by Python create_sdf_string function

 25 28  0  0  0  0  0  0  0  0999 V2000
   13.1533   -5.2399   21.0682 C   0  0  0  0  0  0  0  0  0  0  0  0
   10.4729   -4.0295   17.6135 C   0  0  0  0  0  0  0  0  0  0  0  0
   10.4789   -4.3641   20.9564 C   0  0  0  0  0  0  0  0  0  0  0  0
    8.7421   -5.1412   16.3650 C   0  0  0  0  0  0  0  0  0  0  0  0
   11.4353   -2.9204   17.8044 C   0  0  0  0  0  0  0  0  0  0  0  0
   11.1529   -4.3028   22.1277 C   0  0  0  0  0  0  0  0  0  0  0  0
   11.1290   -4.8502   19.8052 C   0  0  0  0  0  0  0  0  0  0  0  0
   12.4329   -4.2159   24.4224 C   0  0  0  0  0  0  0  0  0  0  0  0
    3.4740   -9.0387   16.5022 C   0  0  0  0  0  0  0  0  0  0  0  0
    6.8384   -7.9290   17.5282 N   0  0  0  0  0  0  0  0  0  0  0  0
    9.4126   -5.9853   18.4899 C   0  0  0  0  0  0  0  0  0  0  0  0
    4.2064  -10.3242   18.3302 C   0  0  0  0  0  0  0  0  0  0  0  0
    9.6599   -4.1551   16.4796 N   0  0  0  0  0  0  0  0  0  0  0  0
    7.0644   -6.4612   15.7375 N   0  0  0  0  0  0  0  0  0  0  0  0
    5.3549   -9.6322   18.3190 C   0  0  0  0  0  0  0  0  0  0  0  0
   10.3704   -4.9638   18.6510 C   0  0  0  0  0  0  0  0  0  0  0  0
    5.5935   -8.6419   17.4234 C   0  0  0  0  0  0  0  0  0  0  0  0
   13.0726   -4.6648   23.3394 O   0  0  0  0  0  0  0  0  0  0  0  0
    8.5955   -6.0705   17.3996 C   0  0  0  0  0  0  0  0  0  0  0  0
    4.6223   -8.3832   16.5030 C   0  0  0  0  0  0  0  0  0  0  0  0
   12.4690   -5.2624   19.9024 C   0  0  0  0  0  0  0  0  0  0  0  0
    3.2548   -9.9919   17.4189 C   0  0  0  0  0  0  0  0  0  0  0  0
   12.4767   -4.7393   22.1790 C   0  0  0  0  0  0  0  0  0  0  0  0
    7.8593   -5.3772   15.3569 N   0  0  0  0  0  0  0  0  0  0  0  0
    7.4412   -6.9038   16.9283 C   0  0  0  0  0  0  0  0  0  0  0  0
  1 21  4  0
  1 23  4  0
  2  5  1  0
  2 13  4  0
  2 16  4  0
  3  6  4  0
  3  7  4  0
  4 13  4  0
  4 19  4  0
  4 24  4  0
  6 23  4  0
  7 16  1  0
  7 21  4  0
  8 18  1  0
  9 20  4  0
  9 22  4  0
 10 17  1  0
 10 25  1  0
 11 16  4  0
 11 19  4  0
 12 15  4  0
 12 22  4  0
 14 24  4  0
 14 25  4  0
 15 17  4  0
 17 20  4  0
 18 23  1  0
 19 25  4  0
M  END
$$$$

 Created by Python create_sdf_string function

 25 28  0  0  0  0  0  0  0  0999 V2000
   13.1533   -5.2399   21.0682 C   0  0  0  0  0  0  0  0  0  0  0  0
   10.4729   -4.0295   17.6135 C   0  0  0  0  0  0  0  0  0  0  0  0
   10.4789   -4.3641   20.9564 C   0  0  0  0  0  0  0  0  0  0  0  0
    8.7421   -5.1412   16.3650 C   0  0  0  0  0  0  0  0  0  0  0  0
   11.4353   -2.9204   17.8044 C   0  0  0  0  0  0  0  0  0  0  0  0
   11.1529   -4.3028   22.1277 C   0  0  0  0  0  0  0  0  0  0  0  0
   11.1290   -4.8502   19.8052 C   0  0  0  0  0  0  0  0  0  0  0  0
   12.4329   -4.2159   24.4224 C   0  0  0  0  0  0  0  0  0  0  0  0
    3.4740   -9.0387   16.5022 C   0  0  0  0  0  0  0  0  0  0  0  0
    6.8384   -7.9290   17.5282 N   0  0  0  0  0  0  0  0  0  0  0  0
    9.4126   -5.9853   18.4899 C   0  0  0  0  0  0  0  0  0  0  0  0
    4.2064  -10.3242   18.3302 C   0  0  0  0  0  0  0  0  0  0  0  0
    9.6599   -4.1551   16.4796 N   0  0  0  0  0  0  0  0  0  0  0  0
    7.0644   -6.4612   15.7375 N   0  0  0  0  0  0  0  0  0  0  0  0
    5.3549   -9.6322   18.3190 C   0  0  0  0  0  0  0  0  0  0  0  0
   10.3704   -4.9638   18.6510 C   0  0  0  0  0  0  0  0  0  0  0  0
    5.5935   -8.6419   17.4234 C   0  0  0  0  0  0  0  0  0  0  0  0
   13.0726   -4.6648   23.3394 O   0  0  0  0  0  0  0  0  0  0  0  0
    8.5955   -6.0705   17.3996 C   0  0  0  0  0  0  0  0  0  0  0  0
    4.6223   -8.3832   16.5030 C   0  0  0  0  0  0  0  0  0  0  0  0
   12.4690   -5.2624   19.9024 C   0  0  0  0  0  0  0  0  0  0  0  0
    3.2548   -9.9919   17.4189 C   0  0  0  0  0  0  0  0  0  0  0  0
   12.4767   -4.7393   22.1790 C   0  0  0  0  0  0  0  0  0  0  0  0
    7.8593   -5.3772   15.3569 N   0  0  0  0  0  0  0  0  0  0  0  0
    7.4412   -6.9038   16.9283 C   0  0  0  0  0  0  0  0  0  0  0  0
  1 21  4  0
  1 23  4  0
  2  5  1  0
  2 13  4  0
  2 16  4  0
  3  6  4  0
  3  7  4  0
  4 13  4  0
  4 19  4  0
  4 24  4  0
  6 23  4  0
  7 16  1  0
  7 21  4  0
  8 18  1  0
  9 20  4  0
  9 22  4  0
 10 17  1  0
 10 25  1  0
 11 16  4  0
 11 19  4  0
 12 15  4  0
 12 22  4  0
 14 24  4  0
 14 25  4  0
 15 17  4  0
 17 20  4  0
 18 23  1  0
 19 25  4  0
M  END
$$$$

 Created by Python create_sdf_string function

 25 28  0  0  0  0  0  0  0  0999 V2000
   13.1533   -5.2399   21.0682 C   0  0  0  0  0  0  0  0  0  0  0  0
   10.4729   -4.0295   17.6135 C   0  0  0  0  0  0  0  0  0  0  0  0
   10.4789   -4.3641   20.9564 C   0  0  0  0  0  0  0  0  0  0  0  0
    8.7421   -5.1412   16.3650 C   0  0  0  0  0  0  0  0  0  0  0  0
   11.4353   -2.9204   17.8044 C   0  0  0  0  0  0  0  0  0  0  0  0
   11.1529   -4.3028   22.1277 C   0  0  0  0  0  0  0  0  0  0  0  0
   11.1290   -4.8502   19.8052 C   0  0  0  0  0  0  0  0  0  0  0  0
   12.4329   -4.2159   24.4224 C   0  0  0  0  0  0  0  0  0  0  0  0
    3.4740   -9.0387   16.5022 C   0  0  0  0  0  0  0  0  0  0  0  0
    6.8384   -7.9290   17.5282 N   0  0  0  0  0  0  0  0  0  0  0  0
    9.4126   -5.9853   18.4899 C   0  0  0  0  0  0  0  0  0  0  0  0
    4.2064  -10.3242   18.3302 C   0  0  0  0  0  0  0  0  0  0  0  0
    9.6599   -4.1551   16.4796 N   0  0  0  0  0  0  0  0  0  0  0  0
    7.0644   -6.4612   15.7375 N   0  0  0  0  0  0  0  0  0  0  0  0
    5.3549   -9.6322   18.3190 C   0  0  0  0  0  0  0  0  0  0  0  0
   10.3704   -4.9638   18.6510 C   0  0  0  0  0  0  0  0  0  0  0  0
    5.5935   -8.6419   17.4234 C   0  0  0  0  0  0  0  0  0  0  0  0
   13.0726   -4.6648   23.3394 O   0  0  0  0  0  0  0  0  0  0  0  0
    8.5955   -6.0705   17.3996 C   0  0  0  0  0  0  0  0  0  0  0  0
    4.6223   -8.3832   16.5030 C   0  0  0  0  0  0  0  0  0  0  0  0
   12.4690   -5.2624   19.9024 C   0  0  0  0  0  0  0  0  0  0  0  0
    3.2548   -9.9919   17.4189 C   0  0  0  0  0  0  0  0  0  0  0  0
   12.4767   -4.7393   22.1790 C   0  0  0  0  0  0  0  0  0  0  0  0
    7.8593   -5.3772   15.3569 N   0  0  0  0  0  0  0  0  0  0  0  0
    7.4412   -6.9038   16.9283 C   0  0  0  0  0  0  0  0  0  0  0  0
  1 21  4  0
  1 23  4  0
  2  5  1  0
  2 13  4  0
  2 16  4  0
  3  6  4  0
  3  7  4  0
  4 13  4  0
  4 19  4  0
  4 24  4  0
  6 23  4  0
  7 16  1  0
  7 21  4  0
  8 18  1  0
  9 20  4  0
  9 22  4  0
 10 17  1  0
 10 25  1  0
 11 16  4  0
 11 19  4  0
 12 15  4  0
 12 22  4  0
 14 24  4  0
 14 25  4  0
 15 17  4  0
 17 20  4  0
 18 23  1  0
 19 25  4  0
M  END
$$$$

 Created by Python create_sdf_string function

 25 28  0  0  0  0  0  0  0  0999 V2000
   13.1533   -5.2399   21.0682 C   0  0  0  0  0  0  0  0  0  0  0  0
   10.4729   -4.0295   17.6135 C   0  0  0  0  0  0  0  0  0  0  0  0
   10.4789   -4.3641   20.9564 C   0  0  0  0  0  0  0  0  0  0  0  0
    8.7421   -5.1412   16.3650 C   0  0  0  0  0  0  0  0  0  0  0  0
   11.4353   -2.9204   17.8044 C   0  0  0  0  0  0  0  0  0  0  0  0
   11.1529   -4.3028   22.1277 C   0  0  0  0  0  0  0  0  0  0  0  0
   11.1290   -4.8502   19.8052 C   0  0  0  0  0  0  0  0  0  0  0  0
   12.4329   -4.2159   24.4224 C   0  0  0  0  0  0  0  0  0  0  0  0
    3.4740   -9.0387   16.5022 C   0  0  0  0  0  0  0  0  0  0  0  0
    6.8384   -7.9290   17.5282 N   0  0  0  0  0  0  0  0  0  0  0  0
    9.4126   -5.9853   18.4899 C   0  0  0  0  0  0  0  0  0  0  0  0
    4.2064  -10.3242   18.3302 C   0  0  0  0  0  0  0  0  0  0  0  0
    9.6599   -4.1551   16.4796 N   0  0  0  0  0  0  0  0  0  0  0  0
    7.0644   -6.4612   15.7375 N   0  0  0  0  0  0  0  0  0  0  0  0
    5.3549   -9.6322   18.3190 C   0  0  0  0  0  0  0  0  0  0  0  0
   10.3704   -4.9638   18.6510 C   0  0  0  0  0  0  0  0  0  0  0  0
    5.5935   -8.6419   17.4234 C   0  0  0  0  0  0  0  0  0  0  0  0
   13.0726   -4.6648   23.3394 O   0  0  0  0  0  0  0  0  0  0  0  0
    8.5955   -6.0705   17.3996 C   0  0  0  0  0  0  0  0  0  0  0  0
    4.6223   -8.3832   16.5030 C   0  0  0  0  0  0  0  0  0  0  0  0
   12.4690   -5.2624   19.9024 C   0  0  0  0  0  0  0  0  0  0  0  0
    3.2548   -9.9919   17.4189 C   0  0  0  0  0  0  0  0  0  0  0  0
   12.4767   -4.7393   22.1790 C   0  0  0  0  0  0  0  0  0  0  0  0
    7.8593   -5.3772   15.3569 N   0  0  0  0  0  0  0  0  0  0  0  0
    7.4412   -6.9038   16.9283 C   0  0  0  0  0  0  0  0  0  0  0  0
  1 21  4  0
  1 23  4  0
  2  5  1  0
  2 13  4  0
  2 16  4  0
  3  6  4  0
  3  7  4  0
  4 13  4  0
  4 19  4  0
  4 24  4  0
  6 23  4  0
  7 16  1  0
  7 21  4  0
  8 18  1  0
  9 20  4  0
  9 22  4  0
 10 17  1  0
 10 25  1  0
 11 16  4  0
 11 19  4  0
 12 15  4  0
 12 22  4  0
 14 24  4  0
 14 25  4  0
 15 17  4  0
 17 20  4  0
 18 23  1  0
 19 25  4  0
M  END
$$$$

 Created by Python create_sdf_string function

 25 28  0  0  0  0  0  0  0  0999 V2000
   13.1533   -5.2399   21.0682 C   0  0  0  0  0  0  0  0  0  0  0  0
   10.4729   -4.0295   17.6135 C   0  0  0  0  0  0  0  0  0  0  0  0
   10.4789   -4.3641   20.9564 C   0  0  0  0  0  0  0  0  0  0  0  0
    8.7421   -5.1412   16.3650 C   0  0  0  0  0  0  0  0  0  0  0  0
   11.4353   -2.9204   17.8044 C   0  0  0  0  0  0  0  0  0  0  0  0
   11.1529   -4.3028   22.1277 C   0  0  0  0  0  0  0  0  0  0  0  0
   11.1290   -4.8502   19.8052 C   0  0  0  0  0  0  0  0  0  0  0  0
   12.4329   -4.2159   24.4224 C   0  0  0  0  0  0  0  0  0  0  0  0
    3.4740   -9.0387   16.5022 C   0  0  0  0  0  0  0  0  0  0  0  0
    6.8384   -7.9290   17.5282 N   0  0  0  0  0  0  0  0  0  0  0  0
    9.4126   -5.9853   18.4899 C   0  0  0  0  0  0  0  0  0  0  0  0
    4.2064  -10.3242   18.3302 C   0  0  0  0  0  0  0  0  0  0  0  0
    9.6599   -4.1551   16.4796 N   0  0  0  0  0  0  0  0  0  0  0  0
    7.0644   -6.4612   15.7375 N   0  0  0  0  0  0  0  0  0  0  0  0
    5.3549   -9.6322   18.3190 C   0  0  0  0  0  0  0  0  0  0  0  0
   10.3704   -4.9638   18.6510 C   0  0  0  0  0  0  0  0  0  0  0  0
    5.5935   -8.6419   17.4234 C   0  0  0  0  0  0  0  0  0  0  0  0
   13.0726   -4.6648   23.3394 O   0  0  0  0  0  0  0  0  0  0  0  0
    8.5955   -6.0705   17.3996 C   0  0  0  0  0  0  0  0  0  0  0  0
    4.6223   -8.3832   16.5030 C   0  0  0  0  0  0  0  0  0  0  0  0
   12.4690   -5.2624   19.9024 C   0  0  0  0  0  0  0  0  0  0  0  0
    3.2548   -9.9919   17.4189 C   0  0  0  0  0  0  0  0  0  0  0  0
   12.4767   -4.7393   22.1790 C   0  0  0  0  0  0  0  0  0  0  0  0
    7.8593   -5.3772   15.3569 N   0  0  0  0  0  0  0  0  0  0  0  0
    7.4412   -6.9038   16.9283 C   0  0  0  0  0  0  0  0  0  0  0  0
  1 21  4  0
  1 23  4  0
  2  5  1  0
  2 13  4  0
  2 16  4  0
  3  6  4  0
  3  7  4  0
  4 13  4  0
  4 19  4  0
  4 24  4  0
  6 23  4  0
  7 16  1  0
  7 21  4  0
  8 18  1  0
  9 20  4  0
  9 22  4  0
 10 17  1  0
 10 25  1  0
 11 16  4  0
 11 19  4  0
 12 15  4  0
 12 22  4  0
 14 24  4  0
 14 25  4  0
 15 17  4  0
 17 20  4  0
 18 23  1  0
 19 25  4  0
M  END
$$$$

 Created by Python create_sdf_string function

 25 28  0  0  0  0  0  0  0  0999 V2000
   13.1533   -5.2399   21.0682 C   0  0  0  0  0  0  0  0  0  0  0  0
   10.4729   -4.0295   17.6135 C   0  0  0  0  0  0  0  0  0  0  0  0
   10.4789   -4.3641   20.9564 C   0  0  0  0  0  0  0  0  0  0  0  0
    8.7421   -5.1412   16.3650 C   0  0  0  0  0  0  0  0  0  0  0  0
   11.4353   -2.9204   17.8044 C   0  0  0  0  0  0  0  0  0  0  0  0
   11.1529   -4.3028   22.1277 C   0  0  0  0  0  0  0  0  0  0  0  0
   11.1290   -4.8502   19.8052 C   0  0  0  0  0  0  0  0  0  0  0  0
   12.4329   -4.2159   24.4224 C   0  0  0  0  0  0  0  0  0  0  0  0
    3.4740   -9.0387   16.5022 C   0  0  0  0  0  0  0  0  0  0  0  0
    6.8384   -7.9290   17.5282 N   0  0  0  0  0  0  0  0  0  0  0  0
    9.4126   -5.9853   18.4899 C   0  0  0  0  0  0  0  0  0  0  0  0
    4.2064  -10.3242   18.3302 C   0  0  0  0  0  0  0  0  0  0  0  0
    9.6599   -4.1551   16.4796 N   0  0  0  0  0  0  0  0  0  0  0  0
    7.0644   -6.4612   15.7375 N   0  0  0  0  0  0  0  0  0  0  0  0
    5.3549   -9.6322   18.3190 C   0  0  0  0  0  0  0  0  0  0  0  0
   10.3704   -4.9638   18.6510 C   0  0  0  0  0  0  0  0  0  0  0  0
    5.5935   -8.6419   17.4234 C   0  0  0  0  0  0  0  0  0  0  0  0
   13.0726   -4.6648   23.3394 O   0  0  0  0  0  0  0  0  0  0  0  0
    8.5955   -6.0705   17.3996 C   0  0  0  0  0  0  0  0  0  0  0  0
    4.6223   -8.3832   16.5030 C   0  0  0  0  0  0  0  0  0  0  0  0
   12.4690   -5.2624   19.9024 C   0  0  0  0  0  0  0  0  0  0  0  0
    3.2548   -9.9919   17.4189 C   0  0  0  0  0  0  0  0  0  0  0  0
   12.4767   -4.7393   22.1790 C   0  0  0  0  0  0  0  0  0  0  0  0
    7.8593   -5.3772   15.3569 N   0  0  0  0  0  0  0  0  0  0  0  0
    7.4412   -6.9038   16.9283 C   0  0  0  0  0  0  0  0  0  0  0  0
  1 21  4  0
  1 23  4  0
  2  5  1  0
  2 13  4  0
  2 16  4  0
  3  6  4  0
  3  7  4  0
  4 13  4  0
  4 19  4  0
  4 24  4  0
  6 23  4  0
  7 16  1  0
  7 21  4  0
  8 18  1  0
  9 20  4  0
  9 22  4  0
 10 17  1  0
 10 25  1  0
 11 16  4  0
 11 19  4  0
 12 15  4  0
 12 22  4  0
 14 24  4  0
 14 25  4  0
 15 17  4  0
 17 20  4  0
 18 23  1  0
 19 25  4  0
M  END
$$$$

 Created by Python create_sdf_string function

 25 28  0  0  0  0  0  0  0  0999 V2000
   13.1533   -5.2399   21.0682 C   0  0  0  0  0  0  0  0  0  0  0  0
   10.4729   -4.0295   17.6135 C   0  0  0  0  0  0  0  0  0  0  0  0
   10.4789   -4.3641   20.9564 C   0  0  0  0  0  0  0  0  0  0  0  0
    8.7421   -5.1412   16.3650 C   0  0  0  0  0  0  0  0  0  0  0  0
   11.4353   -2.9204   17.8044 C   0  0  0  0  0  0  0  0  0  0  0  0
   11.1529   -4.3028   22.1277 C   0  0  0  0  0  0  0  0  0  0  0  0
   11.1290   -4.8502   19.8052 C   0  0  0  0  0  0  0  0  0  0  0  0
   12.4329   -4.2159   24.4224 C   0  0  0  0  0  0  0  0  0  0  0  0
    3.4740   -9.0387   16.5022 C   0  0  0  0  0  0  0  0  0  0  0  0
    6.8384   -7.9290   17.5282 N   0  0  0  0  0  0  0  0  0  0  0  0
    9.4126   -5.9853   18.4899 C   0  0  0  0  0  0  0  0  0  0  0  0
    4.2064  -10.3242   18.3302 C   0  0  0  0  0  0  0  0  0  0  0  0
    9.6599   -4.1551   16.4796 N   0  0  0  0  0  0  0  0  0  0  0  0
    7.0644   -6.4612   15.7375 N   0  0  0  0  0  0  0  0  0  0  0  0
    5.3549   -9.6322   18.3190 C   0  0  0  0  0  0  0  0  0  0  0  0
   10.3704   -4.9638   18.6510 C   0  0  0  0  0  0  0  0  0  0  0  0
    5.5935   -8.6419   17.4234 C   0  0  0  0  0  0  0  0  0  0  0  0
   13.0726   -4.6648   23.3394 O   0  0  0  0  0  0  0  0  0  0  0  0
    8.5955   -6.0705   17.3996 C   0  0  0  0  0  0  0  0  0  0  0  0
    4.6223   -8.3832   16.5030 C   0  0  0  0  0  0  0  0  0  0  0  0
   12.4690   -5.2624   19.9024 C   0  0  0  0  0  0  0  0  0  0  0  0
    3.2548   -9.9919   17.4189 C   0  0  0  0  0  0  0  0  0  0  0  0
   12.4767   -4.7393   22.1790 C   0  0  0  0  0  0  0  0  0  0  0  0
    7.8593   -5.3772   15.3569 N   0  0  0  0  0  0  0  0  0  0  0  0
    7.4412   -6.9038   16.9283 C   0  0  0  0  0  0  0  0  0  0  0  0
  1 21  4  0
  1 23  4  0
  2  5  1  0
  2 13  4  0
  2 16  4  0
  3  6  4  0
  3  7  4  0
  4 13  4  0
  4 19  4  0
  4 24  4  0
  6 23  4  0
  7 16  1  0
  7 21  4  0
  8 18  1  0
  9 20  4  0
  9 22  4  0
 10 17  1  0
 10 25  1  0
 11 16  4  0
 11 19  4  0
 12 15  4  0
 12 22  4  0
 14 24  4  0
 14 25  4  0
 15 17  4  0
 17 20  4  0
 18 23  1  0
 19 25  4  0
M  END
$$$$

 Created by Python create_sdf_string function

 25 28  0  0  0  0  0  0  0  0999 V2000
   13.1533   -5.2399   21.0682 C   0  0  0  0  0  0  0  0  0  0  0  0
   10.4729   -4.0295   17.6135 C   0  0  0  0  0  0  0  0  0  0  0  0
   10.4789   -4.3641   20.9564 C   0  0  0  0  0  0  0  0  0  0  0  0
    8.7421   -5.1412   16.3650 C   0  0  0  0  0  0  0  0  0  0  0  0
   11.4353   -2.9204   17.8044 C   0  0  0  0  0  0  0  0  0  0  0  0
   11.1529   -4.3028   22.1277 C   0  0  0  0  0  0  0  0  0  0  0  0
   11.1290   -4.8502   19.8052 C   0  0  0  0  0  0  0  0  0  0  0  0
   12.4329   -4.2159   24.4224 C   0  0  0  0  0  0  0  0  0  0  0  0
    3.4740   -9.0387   16.5022 C   0  0  0  0  0  0  0  0  0  0  0  0
    6.8384   -7.9290   17.5282 N   0  0  0  0  0  0  0  0  0  0  0  0
    9.4126   -5.9853   18.4899 C   0  0  0  0  0  0  0  0  0  0  0  0
    4.2064  -10.3242   18.3302 C   0  0  0  0  0  0  0  0  0  0  0  0
    9.6599   -4.1551   16.4796 N   0  0  0  0  0  0  0  0  0  0  0  0
    7.0644   -6.4612   15.7375 N   0  0  0  0  0  0  0  0  0  0  0  0
    5.3549   -9.6322   18.3190 C   0  0  0  0  0  0  0  0  0  0  0  0
   10.3704   -4.9638   18.6510 C   0  0  0  0  0  0  0  0  0  0  0  0
    5.5935   -8.6419   17.4234 C   0  0  0  0  0  0  0  0  0  0  0  0
   13.0726   -4.6648   23.3394 O   0  0  0  0  0  0  0  0  0  0  0  0
    8.5955   -6.0705   17.3996 C   0  0  0  0  0  0  0  0  0  0  0  0
    4.6223   -8.3832   16.5030 C   0  0  0  0  0  0  0  0  0  0  0  0
   12.4690   -5.2624   19.9024 C   0  0  0  0  0  0  0  0  0  0  0  0
    3.2548   -9.9919   17.4189 C   0  0  0  0  0  0  0  0  0  0  0  0
   12.4767   -4.7393   22.1790 C   0  0  0  0  0  0  0  0  0  0  0  0
    7.8593   -5.3772   15.3569 N   0  0  0  0  0  0  0  0  0  0  0  0
    7.4412   -6.9038   16.9283 C   0  0  0  0  0  0  0  0  0  0  0  0
  1 21  4  0
  1 23  4  0
  2  5  1  0
  2 13  4  0
  2 16  4  0
  3  6  4  0
  3  7  4  0
  4 13  4  0
  4 19  4  0
  4 24  4  0
  6 23  4  0
  7 16  1  0
  7 21  4  0
  8 18  1  0
  9 20  4  0
  9 22  4  0
 10 17  1  0
 10 25  1  0
 11 16  4  0
 11 19  4  0
 12 15  4  0
 12 22  4  0
 14 24  4  0
 14 25  4  0
 15 17  4  0
 17 20  4  0
 18 23  1  0
 19 25  4  0
M  END
$$$$

 Created by Python create_sdf_string function

 25 28  0  0  0  0  0  0  0  0999 V2000
   13.1533   -5.2399   21.0682 C   0  0  0  0  0  0  0  0  0  0  0  0
   10.4729   -4.0295   17.6135 C   0  0  0  0  0  0  0  0  0  0  0  0
   10.4789   -4.3641   20.9564 C   0  0  0  0  0  0  0  0  0  0  0  0
    8.7421   -5.1412   16.3650 C   0  0  0  0  0  0  0  0  0  0  0  0
   11.4353   -2.9204   17.8044 C   0  0  0  0  0  0  0  0  0  0  0  0
   11.1529   -4.3028   22.1277 C   0  0  0  0  0  0  0  0  0  0  0  0
   11.1290   -4.8502   19.8052 C   0  0  0  0  0  0  0  0  0  0  0  0
   12.4329   -4.2159   24.4224 C   0  0  0  0  0  0  0  0  0  0  0  0
    3.4740   -9.0387   16.5022 C   0  0  0  0  0  0  0  0  0  0  0  0
    6.8384   -7.9290   17.5282 N   0  0  0  0  0  0  0  0  0  0  0  0
    9.4126   -5.9853   18.4899 C   0  0  0  0  0  0  0  0  0  0  0  0
    4.2064  -10.3242   18.3302 C   0  0  0  0  0  0  0  0  0  0  0  0
    9.6599   -4.1551   16.4796 N   0  0  0  0  0  0  0  0  0  0  0  0
    7.0644   -6.4612   15.7375 N   0  0  0  0  0  0  0  0  0  0  0  0
    5.3549   -9.6322   18.3190 C   0  0  0  0  0  0  0  0  0  0  0  0
   10.3704   -4.9638   18.6510 C   0  0  0  0  0  0  0  0  0  0  0  0
    5.5935   -8.6419   17.4234 C   0  0  0  0  0  0  0  0  0  0  0  0
   13.0726   -4.6648   23.3394 O   0  0  0  0  0  0  0  0  0  0  0  0
    8.5955   -6.0705   17.3996 C   0  0  0  0  0  0  0  0  0  0  0  0
    4.6223   -8.3832   16.5030 C   0  0  0  0  0  0  0  0  0  0  0  0
   12.4690   -5.2624   19.9024 C   0  0  0  0  0  0  0  0  0  0  0  0
    3.2548   -9.9919   17.4189 C   0  0  0  0  0  0  0  0  0  0  0  0
   12.4767   -4.7393   22.1790 C   0  0  0  0  0  0  0  0  0  0  0  0
    7.8593   -5.3772   15.3569 N   0  0  0  0  0  0  0  0  0  0  0  0
    7.4412   -6.9038   16.9283 C   0  0  0  0  0  0  0  0  0  0  0  0
  1 21  4  0
  1 23  4  0
  2  5  1  0
  2 13  4  0
  2 16  4  0
  3  6  4  0
  3  7  4  0
  4 13  4  0
  4 19  4  0
  4 24  4  0
  6 23  4  0
  7 16  1  0
  7 21  4  0
  8 18  1  0
  9 20  4  0
  9 22  4  0
 10 17  1  0
 10 25  1  0
 11 16  4  0
 11 19  4  0
 12 15  4  0
 12 22  4  0
 14 24  4  0
 14 25  4  0
 15 17  4  0
 17 20  4  0
 18 23  1  0
 19 25  4  0
M  END
$$$$

 Created by Python create_sdf_string function

 25 28  0  0  0  0  0  0  0  0999 V2000
   13.1533   -5.2399   21.0682 C   0  0  0  0  0  0  0  0  0  0  0  0
   10.4729   -4.0295   17.6135 C   0  0  0  0  0  0  0  0  0  0  0  0
   10.4789   -4.3641   20.9564 C   0  0  0  0  0  0  0  0  0  0  0  0
    8.7421   -5.1412   16.3650 C   0  0  0  0  0  0  0  0  0  0  0  0
   11.4353   -2.9204   17.8044 C   0  0  0  0  0  0  0  0  0  0  0  0
   11.1529   -4.3028   22.1277 C   0  0  0  0  0  0  0  0  0  0  0  0
   11.1290   -4.8502   19.8052 C   0  0  0  0  0  0  0  0  0  0  0  0
   12.4329   -4.2159   24.4224 C   0  0  0  0  0  0  0  0  0  0  0  0
    3.4740   -9.0387   16.5022 C   0  0  0  0  0  0  0  0  0  0  0  0
    6.8384   -7.9290   17.5282 N   0  0  0  0  0  0  0  0  0  0  0  0
    9.4126   -5.9853   18.4899 C   0  0  0  0  0  0  0  0  0  0  0  0
    4.2064  -10.3242   18.3302 C   0  0  0  0  0  0  0  0  0  0  0  0
    9.6599   -4.1551   16.4796 N   0  0  0  0  0  0  0  0  0  0  0  0
    7.0644   -6.4612   15.7375 N   0  0  0  0  0  0  0  0  0  0  0  0
    5.3549   -9.6322   18.3190 C   0  0  0  0  0  0  0  0  0  0  0  0
   10.3704   -4.9638   18.6510 C   0  0  0  0  0  0  0  0  0  0  0  0
    5.5935   -8.6419   17.4234 C   0  0  0  0  0  0  0  0  0  0  0  0
   13.0726   -4.6648   23.3394 O   0  0  0  0  0  0  0  0  0  0  0  0
    8.5955   -6.0705   17.3996 C   0  0  0  0  0  0  0  0  0  0  0  0
    4.6223   -8.3832   16.5030 C   0  0  0  0  0  0  0  0  0  0  0  0
   12.4690   -5.2624   19.9024 C   0  0  0  0  0  0  0  0  0  0  0  0
    3.2548   -9.9919   17.4189 C   0  0  0  0  0  0  0  0  0  0  0  0
   12.4767   -4.7393   22.1790 C   0  0  0  0  0  0  0  0  0  0  0  0
    7.8593   -5.3772   15.3569 N   0  0  0  0  0  0  0  0  0  0  0  0
    7.4412   -6.9038   16.9283 C   0  0  0  0  0  0  0  0  0  0  0  0
  1 21  4  0
  1 23  4  0
  2  5  1  0
  2 13  4  0
  2 16  4  0
  3  6  4  0
  3  7  4  0
  4 13  4  0
  4 19  4  0
  4 24  4  0
  6 23  4  0
  7 16  1  0
  7 21  4  0
  8 18  1  0
  9 20  4  0
  9 22  4  0
 10 17  1  0
 10 25  1  0
 11 16  4  0
 11 19  4  0
 12 15  4  0
 12 22  4  0
 14 24  4  0
 14 25  4  0
 15 17  4  0
 17 20  4  0
 18 23  1  0
 19 25  4  0
M  END
$$$$

 Created by Python create_sdf_string function

 25 28  0  0  0  0  0  0  0  0999 V2000
   13.1533   -5.2399   21.0682 C   0  0  0  0  0  0  0  0  0  0  0  0
   10.4729   -4.0295   17.6135 C   0  0  0  0  0  0  0  0  0  0  0  0
   10.4789   -4.3641   20.9564 C   0  0  0  0  0  0  0  0  0  0  0  0
    8.7421   -5.1412   16.3650 C   0  0  0  0  0  0  0  0  0  0  0  0
   11.4353   -2.9204   17.8044 C   0  0  0  0  0  0  0  0  0  0  0  0
   11.1529   -4.3028   22.1277 C   0  0  0  0  0  0  0  0  0  0  0  0
   11.1290   -4.8502   19.8052 C   0  0  0  0  0  0  0  0  0  0  0  0
   12.4329   -4.2159   24.4224 C   0  0  0  0  0  0  0  0  0  0  0  0
    3.4740   -9.0387   16.5022 C   0  0  0  0  0  0  0  0  0  0  0  0
    6.8384   -7.9290   17.5282 N   0  0  0  0  0  0  0  0  0  0  0  0
    9.4126   -5.9853   18.4899 C   0  0  0  0  0  0  0  0  0  0  0  0
    4.2064  -10.3242   18.3302 C   0  0  0  0  0  0  0  0  0  0  0  0
    9.6599   -4.1551   16.4796 N   0  0  0  0  0  0  0  0  0  0  0  0
    7.0644   -6.4612   15.7375 N   0  0  0  0  0  0  0  0  0  0  0  0
    5.3549   -9.6322   18.3190 C   0  0  0  0  0  0  0  0  0  0  0  0
   10.3704   -4.9638   18.6510 C   0  0  0  0  0  0  0  0  0  0  0  0
    5.5935   -8.6419   17.4234 C   0  0  0  0  0  0  0  0  0  0  0  0
   13.0726   -4.6648   23.3394 O   0  0  0  0  0  0  0  0  0  0  0  0
    8.5955   -6.0705   17.3996 C   0  0  0  0  0  0  0  0  0  0  0  0
    4.6223   -8.3832   16.5030 C   0  0  0  0  0  0  0  0  0  0  0  0
   12.4690   -5.2624   19.9024 C   0  0  0  0  0  0  0  0  0  0  0  0
    3.2548   -9.9919   17.4189 C   0  0  0  0  0  0  0  0  0  0  0  0
   12.4767   -4.7393   22.1790 C   0  0  0  0  0  0  0  0  0  0  0  0
    7.8593   -5.3772   15.3569 N   0  0  0  0  0  0  0  0  0  0  0  0
    7.4412   -6.9038   16.9283 C   0  0  0  0  0  0  0  0  0  0  0  0
  1 21  4  0
  1 23  4  0
  2  5  1  0
  2 13  4  0
  2 16  4  0
  3  6  4  0
  3  7  4  0
  4 13  4  0
  4 19  4  0
  4 24  4  0
  6 23  4  0
  7 16  1  0
  7 21  4  0
  8 18  1  0
  9 20  4  0
  9 22  4  0
 10 17  1  0
 10 25  1  0
 11 16  4  0
 11 19  4  0
 12 15  4  0
 12 22  4  0
 14 24  4  0
 14 25  4  0
 15 17  4  0
 17 20  4  0
 18 23  1  0
 19 25  4  0
M  END
$$$$

 Created by Python create_sdf_string function

 25 28  0  0  0  0  0  0  0  0999 V2000
   13.1533   -5.2399   21.0682 C   0  0  0  0  0  0  0  0  0  0  0  0
   10.4729   -4.0295   17.6135 C   0  0  0  0  0  0  0  0  0  0  0  0
   10.4789   -4.3641   20.9564 C   0  0  0  0  0  0  0  0  0  0  0  0
    8.7421   -5.1412   16.3650 C   0  0  0  0  0  0  0  0  0  0  0  0
   11.4353   -2.9204   17.8044 C   0  0  0  0  0  0  0  0  0  0  0  0
   11.1529   -4.3028   22.1277 C   0  0  0  0  0  0  0  0  0  0  0  0
   11.1290   -4.8502   19.8052 C   0  0  0  0  0  0  0  0  0  0  0  0
   12.4329   -4.2159   24.4224 C   0  0  0  0  0  0  0  0  0  0  0  0
    3.4740   -9.0387   16.5022 C   0  0  0  0  0  0  0  0  0  0  0  0
    6.8384   -7.9290   17.5282 N   0  0  0  0  0  0  0  0  0  0  0  0
    9.4126   -5.9853   18.4899 C   0  0  0  0  0  0  0  0  0  0  0  0
    4.2064  -10.3242   18.3302 C   0  0  0  0  0  0  0  0  0  0  0  0
    9.6599   -4.1551   16.4796 N   0  0  0  0  0  0  0  0  0  0  0  0
    7.0644   -6.4612   15.7375 N   0  0  0  0  0  0  0  0  0  0  0  0
    5.3549   -9.6322   18.3190 C   0  0  0  0  0  0  0  0  0  0  0  0
   10.3704   -4.9638   18.6510 C   0  0  0  0  0  0  0  0  0  0  0  0
    5.5935   -8.6419   17.4234 C   0  0  0  0  0  0  0  0  0  0  0  0
   13.0726   -4.6648   23.3394 O   0  0  0  0  0  0  0  0  0  0  0  0
    8.5955   -6.0705   17.3996 C   0  0  0  0  0  0  0  0  0  0  0  0
    4.6223   -8.3832   16.5030 C   0  0  0  0  0  0  0  0  0  0  0  0
   12.4690   -5.2624   19.9024 C   0  0  0  0  0  0  0  0  0  0  0  0
    3.2548   -9.9919   17.4189 C   0  0  0  0  0  0  0  0  0  0  0  0
   12.4767   -4.7393   22.1790 C   0  0  0  0  0  0  0  0  0  0  0  0
    7.8593   -5.3772   15.3569 N   0  0  0  0  0  0  0  0  0  0  0  0
    7.4412   -6.9038   16.9283 C   0  0  0  0  0  0  0  0  0  0  0  0
  1 21  4  0
  1 23  4  0
  2  5  1  0
  2 13  4  0
  2 16  4  0
  3  6  4  0
  3  7  4  0
  4 13  4  0
  4 19  4  0
  4 24  4  0
  6 23  4  0
  7 16  1  0
  7 21  4  0
  8 18  1  0
  9 20  4  0
  9 22  4  0
 10 17  1  0
 10 25  1  0
 11 16  4  0
 11 19  4  0
 12 15  4  0
 12 22  4  0
 14 24  4  0
 14 25  4  0
 15 17  4  0
 17 20  4  0
 18 23  1  0
 19 25  4  0
M  END
$$$$

 Created by Python create_sdf_string function

 25 28  0  0  0  0  0  0  0  0999 V2000
   13.1533   -5.2399   21.0682 C   0  0  0  0  0  0  0  0  0  0  0  0
   10.4729   -4.0295   17.6135 C   0  0  0  0  0  0  0  0  0  0  0  0
   10.4789   -4.3641   20.9564 C   0  0  0  0  0  0  0  0  0  0  0  0
    8.7421   -5.1412   16.3650 C   0  0  0  0  0  0  0  0  0  0  0  0
   11.4353   -2.9204   17.8044 C   0  0  0  0  0  0  0  0  0  0  0  0
   11.1529   -4.3028   22.1277 C   0  0  0  0  0  0  0  0  0  0  0  0
   11.1290   -4.8502   19.8052 C   0  0  0  0  0  0  0  0  0  0  0  0
   12.4329   -4.2159   24.4224 C   0  0  0  0  0  0  0  0  0  0  0  0
    3.4740   -9.0387   16.5022 C   0  0  0  0  0  0  0  0  0  0  0  0
    6.8384   -7.9290   17.5282 N   0  0  0  0  0  0  0  0  0  0  0  0
    9.4126   -5.9853   18.4899 C   0  0  0  0  0  0  0  0  0  0  0  0
    4.2064  -10.3242   18.3302 C   0  0  0  0  0  0  0  0  0  0  0  0
    9.6599   -4.1551   16.4796 N   0  0  0  0  0  0  0  0  0  0  0  0
    7.0644   -6.4612   15.7375 N   0  0  0  0  0  0  0  0  0  0  0  0
    5.3549   -9.6322   18.3190 C   0  0  0  0  0  0  0  0  0  0  0  0
   10.3704   -4.9638   18.6510 C   0  0  0  0  0  0  0  0  0  0  0  0
    5.5935   -8.6419   17.4234 C   0  0  0  0  0  0  0  0  0  0  0  0
   13.0726   -4.6648   23.3394 O   0  0  0  0  0  0  0  0  0  0  0  0
    8.5955   -6.0705   17.3996 C   0  0  0  0  0  0  0  0  0  0  0  0
    4.6223   -8.3832   16.5030 C   0  0  0  0  0  0  0  0  0  0  0  0
   12.4690   -5.2624   19.9024 C   0  0  0  0  0  0  0  0  0  0  0  0
    3.2548   -9.9919   17.4189 C   0  0  0  0  0  0  0  0  0  0  0  0
   12.4767   -4.7393   22.1790 C   0  0  0  0  0  0  0  0  0  0  0  0
    7.8593   -5.3772   15.3569 N   0  0  0  0  0  0  0  0  0  0  0  0
    7.4412   -6.9038   16.9283 C   0  0  0  0  0  0  0  0  0  0  0  0
  1 21  4  0
  1 23  4  0
  2  5  1  0
  2 13  4  0
  2 16  4  0
  3  6  4  0
  3  7  4  0
  4 13  4  0
  4 19  4  0
  4 24  4  0
  6 23  4  0
  7 16  1  0
  7 21  4  0
  8 18  1  0
  9 20  4  0
  9 22  4  0
 10 17  1  0
 10 25  1  0
 11 16  4  0
 11 19  4  0
 12 15  4  0
 12 22  4  0
 14 24  4  0
 14 25  4  0
 15 17  4  0
 17 20  4  0
 18 23  1  0
 19 25  4  0
M  END
$$$$

 Created by Python create_sdf_string function

 25 28  0  0  0  0  0  0  0  0999 V2000
   13.1533   -5.2399   21.0682 C   0  0  0  0  0  0  0  0  0  0  0  0
   10.4729   -4.0295   17.6135 C   0  0  0  0  0  0  0  0  0  0  0  0
   10.4789   -4.3641   20.9564 C   0  0  0  0  0  0  0  0  0  0  0  0
    8.7421   -5.1412   16.3650 C   0  0  0  0  0  0  0  0  0  0  0  0
   11.4353   -2.9204   17.8044 C   0  0  0  0  0  0  0  0  0  0  0  0
   11.1529   -4.3028   22.1277 C   0  0  0  0  0  0  0  0  0  0  0  0
   11.1290   -4.8502   19.8052 C   0  0  0  0  0  0  0  0  0  0  0  0
   12.4329   -4.2159   24.4224 C   0  0  0  0  0  0  0  0  0  0  0  0
    3.4740   -9.0387   16.5022 C   0  0  0  0  0  0  0  0  0  0  0  0
    6.8384   -7.9290   17.5282 N   0  0  0  0  0  0  0  0  0  0  0  0
    9.4126   -5.9853   18.4899 C   0  0  0  0  0  0  0  0  0  0  0  0
    4.2064  -10.3242   18.3302 C   0  0  0  0  0  0  0  0  0  0  0  0
    9.6599   -4.1551   16.4796 N   0  0  0  0  0  0  0  0  0  0  0  0
    7.0644   -6.4612   15.7375 N   0  0  0  0  0  0  0  0  0  0  0  0
    5.3549   -9.6322   18.3190 C   0  0  0  0  0  0  0  0  0  0  0  0
   10.3704   -4.9638   18.6510 C   0  0  0  0  0  0  0  0  0  0  0  0
    5.5935   -8.6419   17.4234 C   0  0  0  0  0  0  0  0  0  0  0  0
   13.0726   -4.6648   23.3394 O   0  0  0  0  0  0  0  0  0  0  0  0
    8.5955   -6.0705   17.3996 C   0  0  0  0  0  0  0  0  0  0  0  0
    4.6223   -8.3832   16.5030 C   0  0  0  0  0  0  0  0  0  0  0  0
   12.4690   -5.2624   19.9024 C   0  0  0  0  0  0  0  0  0  0  0  0
    3.2548   -9.9919   17.4189 C   0  0  0  0  0  0  0  0  0  0  0  0
   12.4767   -4.7393   22.1790 C   0  0  0  0  0  0  0  0  0  0  0  0
    7.8593   -5.3772   15.3569 N   0  0  0  0  0  0  0  0  0  0  0  0
    7.4412   -6.9038   16.9283 C   0  0  0  0  0  0  0  0  0  0  0  0
  1 21  4  0
  1 23  4  0
  2  5  1  0
  2 13  4  0
  2 16  4  0
  3  6  4  0
  3  7  4  0
  4 13  4  0
  4 19  4  0
  4 24  4  0
  6 23  4  0
  7 16  1  0
  7 21  4  0
  8 18  1  0
  9 20  4  0
  9 22  4  0
 10 17  1  0
 10 25  1  0
 11 16  4  0
 11 19  4  0
 12 15  4  0
 12 22  4  0
 14 24  4  0
 14 25  4  0
 15 17  4  0
 17 20  4  0
 18 23  1  0
 19 25  4  0
M  END
$$$$

 Created by Python create_sdf_string function

 25 28  0  0  0  0  0  0  0  0999 V2000
   13.1533   -5.2399   21.0682 C   0  0  0  0  0  0  0  0  0  0  0  0
   10.4729   -4.0295   17.6135 C   0  0  0  0  0  0  0  0  0  0  0  0
   10.4789   -4.3641   20.9564 C   0  0  0  0  0  0  0  0  0  0  0  0
    8.7421   -5.1412   16.3650 C   0  0  0  0  0  0  0  0  0  0  0  0
   11.4353   -2.9204   17.8044 C   0  0  0  0  0  0  0  0  0  0  0  0
   11.1529   -4.3028   22.1277 C   0  0  0  0  0  0  0  0  0  0  0  0
   11.1290   -4.8502   19.8052 C   0  0  0  0  0  0  0  0  0  0  0  0
   12.4329   -4.2159   24.4224 C   0  0  0  0  0  0  0  0  0  0  0  0
    3.4740   -9.0387   16.5022 C   0  0  0  0  0  0  0  0  0  0  0  0
    6.8384   -7.9290   17.5282 N   0  0  0  0  0  0  0  0  0  0  0  0
    9.4126   -5.9853   18.4899 C   0  0  0  0  0  0  0  0  0  0  0  0
    4.2064  -10.3242   18.3302 C   0  0  0  0  0  0  0  0  0  0  0  0
    9.6599   -4.1551   16.4796 N   0  0  0  0  0  0  0  0  0  0  0  0
    7.0644   -6.4612   15.7375 N   0  0  0  0  0  0  0  0  0  0  0  0
    5.3549   -9.6322   18.3190 C   0  0  0  0  0  0  0  0  0  0  0  0
   10.3704   -4.9638   18.6510 C   0  0  0  0  0  0  0  0  0  0  0  0
    5.5935   -8.6419   17.4234 C   0  0  0  0  0  0  0  0  0  0  0  0
   13.0726   -4.6648   23.3394 O   0  0  0  0  0  0  0  0  0  0  0  0
    8.5955   -6.0705   17.3996 C   0  0  0  0  0  0  0  0  0  0  0  0
    4.6223   -8.3832   16.5030 C   0  0  0  0  0  0  0  0  0  0  0  0
   12.4690   -5.2624   19.9024 C   0  0  0  0  0  0  0  0  0  0  0  0
    3.2548   -9.9919   17.4189 C   0  0  0  0  0  0  0  0  0  0  0  0
   12.4767   -4.7393   22.1790 C   0  0  0  0  0  0  0  0  0  0  0  0
    7.8593   -5.3772   15.3569 N   0  0  0  0  0  0  0  0  0  0  0  0
    7.4412   -6.9038   16.9283 C   0  0  0  0  0  0  0  0  0  0  0  0
  1 21  4  0
  1 23  4  0
  2  5  1  0
  2 13  4  0
  2 16  4  0
  3  6  4  0
  3  7  4  0
  4 13  4  0
  4 19  4  0
  4 24  4  0
  6 23  4  0
  7 16  1  0
  7 21  4  0
  8 18  1  0
  9 20  4  0
  9 22  4  0
 10 17  1  0
 10 25  1  0
 11 16  4  0
 11 19  4  0
 12 15  4  0
 12 22  4  0
 14 24  4  0
 14 25  4  0
 15 17  4  0
 17 20  4  0
 18 23  1  0
 19 25  4  0
M  END
$$$$

 Created by Python create_sdf_string function

 25 28  0  0  0  0  0  0  0  0999 V2000
   13.1533   -5.2399   21.0682 C   0  0  0  0  0  0  0  0  0  0  0  0
   10.4729   -4.0295   17.6135 C   0  0  0  0  0  0  0  0  0  0  0  0
   10.4789   -4.3641   20.9564 C   0  0  0  0  0  0  0  0  0  0  0  0
    8.7421   -5.1412   16.3650 C   0  0  0  0  0  0  0  0  0  0  0  0
   11.4353   -2.9204   17.8044 C   0  0  0  0  0  0  0  0  0  0  0  0
   11.1529   -4.3028   22.1277 C   0  0  0  0  0  0  0  0  0  0  0  0
   11.1290   -4.8502   19.8052 C   0  0  0  0  0  0  0  0  0  0  0  0
   12.4329   -4.2159   24.4224 C   0  0  0  0  0  0  0  0  0  0  0  0
    3.4740   -9.0387   16.5022 C   0  0  0  0  0  0  0  0  0  0  0  0
    6.8384   -7.9290   17.5282 N   0  0  0  0  0  0  0  0  0  0  0  0
    9.4126   -5.9853   18.4899 C   0  0  0  0  0  0  0  0  0  0  0  0
    4.2064  -10.3242   18.3302 C   0  0  0  0  0  0  0  0  0  0  0  0
    9.6599   -4.1551   16.4796 N   0  0  0  0  0  0  0  0  0  0  0  0
    7.0644   -6.4612   15.7375 N   0  0  0  0  0  0  0  0  0  0  0  0
    5.3549   -9.6322   18.3190 C   0  0  0  0  0  0  0  0  0  0  0  0
   10.3704   -4.9638   18.6510 C   0  0  0  0  0  0  0  0  0  0  0  0
    5.5935   -8.6419   17.4234 C   0  0  0  0  0  0  0  0  0  0  0  0
   13.0726   -4.6648   23.3394 O   0  0  0  0  0  0  0  0  0  0  0  0
    8.5955   -6.0705   17.3996 C   0  0  0  0  0  0  0  0  0  0  0  0
    4.6223   -8.3832   16.5030 C   0  0  0  0  0  0  0  0  0  0  0  0
   12.4690   -5.2624   19.9024 C   0  0  0  0  0  0  0  0  0  0  0  0
    3.2548   -9.9919   17.4189 C   0  0  0  0  0  0  0  0  0  0  0  0
   12.4767   -4.7393   22.1790 C   0  0  0  0  0  0  0  0  0  0  0  0
    7.8593   -5.3772   15.3569 N   0  0  0  0  0  0  0  0  0  0  0  0
    7.4412   -6.9038   16.9283 C   0  0  0  0  0  0  0  0  0  0  0  0
  1 21  4  0
  1 23  4  0
  2  5  1  0
  2 13  4  0
  2 16  4  0
  3  6  4  0
  3  7  4  0
  4 13  4  0
  4 19  4  0
  4 24  4  0
  6 23  4  0
  7 16  1  0
  7 21  4  0
  8 18  1  0
  9 20  4  0
  9 22  4  0
 10 17  1  0
 10 25  1  0
 11 16  4  0
 11 19  4  0
 12 15  4  0
 12 22  4  0
 14 24  4  0
 14 25  4  0
 15 17  4  0
 17 20  4  0
 18 23  1  0
 19 25  4  0
M  END
$$$$

 Created by Python create_sdf_string function

 25 28  0  0  0  0  0  0  0  0999 V2000
   13.1533   -5.2399   21.0682 C   0  0  0  0  0  0  0  0  0  0  0  0
   10.4729   -4.0295   17.6135 C   0  0  0  0  0  0  0  0  0  0  0  0
   10.4789   -4.3641   20.9564 C   0  0  0  0  0  0  0  0  0  0  0  0
    8.7421   -5.1412   16.3650 C   0  0  0  0  0  0  0  0  0  0  0  0
   11.4353   -2.9204   17.8044 C   0  0  0  0  0  0  0  0  0  0  0  0
   11.1529   -4.3028   22.1277 C   0  0  0  0  0  0  0  0  0  0  0  0
   11.1290   -4.8502   19.8052 C   0  0  0  0  0  0  0  0  0  0  0  0
   12.4329   -4.2159   24.4224 C   0  0  0  0  0  0  0  0  0  0  0  0
    3.4740   -9.0387   16.5022 C   0  0  0  0  0  0  0  0  0  0  0  0
    6.8384   -7.9290   17.5282 N   0  0  0  0  0  0  0  0  0  0  0  0
    9.4126   -5.9853   18.4899 C   0  0  0  0  0  0  0  0  0  0  0  0
    4.2064  -10.3242   18.3302 C   0  0  0  0  0  0  0  0  0  0  0  0
    9.6599   -4.1551   16.4796 N   0  0  0  0  0  0  0  0  0  0  0  0
    7.0644   -6.4612   15.7375 N   0  0  0  0  0  0  0  0  0  0  0  0
    5.3549   -9.6322   18.3190 C   0  0  0  0  0  0  0  0  0  0  0  0
   10.3704   -4.9638   18.6510 C   0  0  0  0  0  0  0  0  0  0  0  0
    5.5935   -8.6419   17.4234 C   0  0  0  0  0  0  0  0  0  0  0  0
   13.0726   -4.6648   23.3394 O   0  0  0  0  0  0  0  0  0  0  0  0
    8.5955   -6.0705   17.3996 C   0  0  0  0  0  0  0  0  0  0  0  0
    4.6223   -8.3832   16.5030 C   0  0  0  0  0  0  0  0  0  0  0  0
   12.4690   -5.2624   19.9024 C   0  0  0  0  0  0  0  0  0  0  0  0
    3.2548   -9.9919   17.4189 C   0  0  0  0  0  0  0  0  0  0  0  0
   12.4767   -4.7393   22.1790 C   0  0  0  0  0  0  0  0  0  0  0  0
    7.8593   -5.3772   15.3569 N   0  0  0  0  0  0  0  0  0  0  0  0
    7.4412   -6.9038   16.9283 C   0  0  0  0  0  0  0  0  0  0  0  0
  1 21  4  0
  1 23  4  0
  2  5  1  0
  2 13  4  0
  2 16  4  0
  3  6  4  0
  3  7  4  0
  4 13  4  0
  4 19  4  0
  4 24  4  0
  6 23  4  0
  7 16  1  0
  7 21  4  0
  8 18  1  0
  9 20  4  0
  9 22  4  0
 10 17  1  0
 10 25  1  0
 11 16  4  0
 11 19  4  0
 12 15  4  0
 12 22  4  0
 14 24  4  0
 14 25  4  0
 15 17  4  0
 17 20  4  0
 18 23  1  0
 19 25  4  0
M  END
$$$$

 Created by Python create_sdf_string function

 25 28  0  0  0  0  0  0  0  0999 V2000
   13.1533   -5.2399   21.0682 C   0  0  0  0  0  0  0  0  0  0  0  0
   10.4729   -4.0295   17.6135 C   0  0  0  0  0  0  0  0  0  0  0  0
   10.4789   -4.3641   20.9564 C   0  0  0  0  0  0  0  0  0  0  0  0
    8.7421   -5.1412   16.3650 C   0  0  0  0  0  0  0  0  0  0  0  0
   11.4353   -2.9204   17.8044 C   0  0  0  0  0  0  0  0  0  0  0  0
   11.1529   -4.3028   22.1277 C   0  0  0  0  0  0  0  0  0  0  0  0
   11.1290   -4.8502   19.8052 C   0  0  0  0  0  0  0  0  0  0  0  0
   12.4329   -4.2159   24.4224 C   0  0  0  0  0  0  0  0  0  0  0  0
    3.4740   -9.0387   16.5022 C   0  0  0  0  0  0  0  0  0  0  0  0
    6.8384   -7.9290   17.5282 N   0  0  0  0  0  0  0  0  0  0  0  0
    9.4126   -5.9853   18.4899 C   0  0  0  0  0  0  0  0  0  0  0  0
    4.2064  -10.3242   18.3302 C   0  0  0  0  0  0  0  0  0  0  0  0
    9.6599   -4.1551   16.4796 N   0  0  0  0  0  0  0  0  0  0  0  0
    7.0644   -6.4612   15.7375 N   0  0  0  0  0  0  0  0  0  0  0  0
    5.3549   -9.6322   18.3190 C   0  0  0  0  0  0  0  0  0  0  0  0
   10.3704   -4.9638   18.6510 C   0  0  0  0  0  0  0  0  0  0  0  0
    5.5935   -8.6419   17.4234 C   0  0  0  0  0  0  0  0  0  0  0  0
   13.0726   -4.6648   23.3394 O   0  0  0  0  0  0  0  0  0  0  0  0
    8.5955   -6.0705   17.3996 C   0  0  0  0  0  0  0  0  0  0  0  0
    4.6223   -8.3832   16.5030 C   0  0  0  0  0  0  0  0  0  0  0  0
   12.4690   -5.2624   19.9024 C   0  0  0  0  0  0  0  0  0  0  0  0
    3.2548   -9.9919   17.4189 C   0  0  0  0  0  0  0  0  0  0  0  0
   12.4767   -4.7393   22.1790 C   0  0  0  0  0  0  0  0  0  0  0  0
    7.8593   -5.3772   15.3569 N   0  0  0  0  0  0  0  0  0  0  0  0
    7.4412   -6.9038   16.9283 C   0  0  0  0  0  0  0  0  0  0  0  0
  1 21  4  0
  1 23  4  0
  2  5  1  0
  2 13  4  0
  2 16  4  0
  3  6  4  0
  3  7  4  0
  4 13  4  0
  4 19  4  0
  4 24  4  0
  6 23  4  0
  7 16  1  0
  7 21  4  0
  8 18  1  0
  9 20  4  0
  9 22  4  0
 10 17  1  0
 10 25  1  0
 11 16  4  0
 11 19  4  0
 12 15  4  0
 12 22  4  0
 14 24  4  0
 14 25  4  0
 15 17  4  0
 17 20  4  0
 18 23  1  0
 19 25  4  0
M  END
$$$$

 Created by Python create_sdf_string function

 25 28  0  0  0  0  0  0  0  0999 V2000
   13.1533   -5.2399   21.0682 C   0  0  0  0  0  0  0  0  0  0  0  0
   10.4729   -4.0295   17.6135 C   0  0  0  0  0  0  0  0  0  0  0  0
   10.4789   -4.3641   20.9564 C   0  0  0  0  0  0  0  0  0  0  0  0
    8.7421   -5.1412   16.3650 C   0  0  0  0  0  0  0  0  0  0  0  0
   11.4353   -2.9204   17.8044 C   0  0  0  0  0  0  0  0  0  0  0  0
   11.1529   -4.3028   22.1277 C   0  0  0  0  0  0  0  0  0  0  0  0
   11.1290   -4.8502   19.8052 C   0  0  0  0  0  0  0  0  0  0  0  0
   12.4329   -4.2159   24.4224 C   0  0  0  0  0  0  0  0  0  0  0  0
    3.4740   -9.0387   16.5022 C   0  0  0  0  0  0  0  0  0  0  0  0
    6.8384   -7.9290   17.5282 N   0  0  0  0  0  0  0  0  0  0  0  0
    9.4126   -5.9853   18.4899 C   0  0  0  0  0  0  0  0  0  0  0  0
    4.2064  -10.3242   18.3302 C   0  0  0  0  0  0  0  0  0  0  0  0
    9.6599   -4.1551   16.4796 N   0  0  0  0  0  0  0  0  0  0  0  0
    7.0644   -6.4612   15.7375 N   0  0  0  0  0  0  0  0  0  0  0  0
    5.3549   -9.6322   18.3190 C   0  0  0  0  0  0  0  0  0  0  0  0
   10.3704   -4.9638   18.6510 C   0  0  0  0  0  0  0  0  0  0  0  0
    5.5935   -8.6419   17.4234 C   0  0  0  0  0  0  0  0  0  0  0  0
   13.0726   -4.6648   23.3394 O   0  0  0  0  0  0  0  0  0  0  0  0
    8.5955   -6.0705   17.3996 C   0  0  0  0  0  0  0  0  0  0  0  0
    4.6223   -8.3832   16.5030 C   0  0  0  0  0  0  0  0  0  0  0  0
   12.4690   -5.2624   19.9024 C   0  0  0  0  0  0  0  0  0  0  0  0
    3.2548   -9.9919   17.4189 C   0  0  0  0  0  0  0  0  0  0  0  0
   12.4767   -4.7393   22.1790 C   0  0  0  0  0  0  0  0  0  0  0  0
    7.8593   -5.3772   15.3569 N   0  0  0  0  0  0  0  0  0  0  0  0
    7.4412   -6.9038   16.9283 C   0  0  0  0  0  0  0  0  0  0  0  0
  1 21  4  0
  1 23  4  0
  2  5  1  0
  2 13  4  0
  2 16  4  0
  3  6  4  0
  3  7  4  0
  4 13  4  0
  4 19  4  0
  4 24  4  0
  6 23  4  0
  7 16  1  0
  7 21  4  0
  8 18  1  0
  9 20  4  0
  9 22  4  0
 10 17  1  0
 10 25  1  0
 11 16  4  0
 11 19  4  0
 12 15  4  0
 12 22  4  0
 14 24  4  0
 14 25  4  0
 15 17  4  0
 17 20  4  0
 18 23  1  0
 19 25  4  0
M  END
$$$$

 Created by Python create_sdf_string function

 25 28  0  0  0  0  0  0  0  0999 V2000
   13.1533   -5.2399   21.0682 C   0  0  0  0  0  0  0  0  0  0  0  0
   10.4729   -4.0295   17.6135 C   0  0  0  0  0  0  0  0  0  0  0  0
   10.4789   -4.3641   20.9564 C   0  0  0  0  0  0  0  0  0  0  0  0
    8.7421   -5.1412   16.3650 C   0  0  0  0  0  0  0  0  0  0  0  0
   11.4353   -2.9204   17.8044 C   0  0  0  0  0  0  0  0  0  0  0  0
   11.1529   -4.3028   22.1277 C   0  0  0  0  0  0  0  0  0  0  0  0
   11.1290   -4.8502   19.8052 C   0  0  0  0  0  0  0  0  0  0  0  0
   12.4329   -4.2159   24.4224 C   0  0  0  0  0  0  0  0  0  0  0  0
    3.4740   -9.0387   16.5022 C   0  0  0  0  0  0  0  0  0  0  0  0
    6.8384   -7.9290   17.5282 N   0  0  0  0  0  0  0  0  0  0  0  0
    9.4126   -5.9853   18.4899 C   0  0  0  0  0  0  0  0  0  0  0  0
    4.2064  -10.3242   18.3302 C   0  0  0  0  0  0  0  0  0  0  0  0
    9.6599   -4.1551   16.4796 N   0  0  0  0  0  0  0  0  0  0  0  0
    7.0644   -6.4612   15.7375 N   0  0  0  0  0  0  0  0  0  0  0  0
    5.3549   -9.6322   18.3190 C   0  0  0  0  0  0  0  0  0  0  0  0
   10.3704   -4.9638   18.6510 C   0  0  0  0  0  0  0  0  0  0  0  0
    5.5935   -8.6419   17.4234 C   0  0  0  0  0  0  0  0  0  0  0  0
   13.0726   -4.6648   23.3394 O   0  0  0  0  0  0  0  0  0  0  0  0
    8.5955   -6.0705   17.3996 C   0  0  0  0  0  0  0  0  0  0  0  0
    4.6223   -8.3832   16.5030 C   0  0  0  0  0  0  0  0  0  0  0  0
   12.4690   -5.2624   19.9024 C   0  0  0  0  0  0  0  0  0  0  0  0
    3.2548   -9.9919   17.4189 C   0  0  0  0  0  0  0  0  0  0  0  0
   12.4767   -4.7393   22.1790 C   0  0  0  0  0  0  0  0  0  0  0  0
    7.8593   -5.3772   15.3569 N   0  0  0  0  0  0  0  0  0  0  0  0
    7.4412   -6.9038   16.9283 C   0  0  0  0  0  0  0  0  0  0  0  0
  1 21  4  0
  1 23  4  0
  2  5  1  0
  2 13  4  0
  2 16  4  0
  3  6  4  0
  3  7  4  0
  4 13  4  0
  4 19  4  0
  4 24  4  0
  6 23  4  0
  7 16  1  0
  7 21  4  0
  8 18  1  0
  9 20  4  0
  9 22  4  0
 10 17  1  0
 10 25  1  0
 11 16  4  0
 11 19  4  0
 12 15  4  0
 12 22  4  0
 14 24  4  0
 14 25  4  0
 15 17  4  0
 17 20  4  0
 18 23  1  0
 19 25  4  0
M  END
$$$$

 Created by Python create_sdf_string function

 25 28  0  0  0  0  0  0  0  0999 V2000
   13.1533   -5.2399   21.0682 C   0  0  0  0  0  0  0  0  0  0  0  0
   10.4729   -4.0295   17.6135 C   0  0  0  0  0  0  0  0  0  0  0  0
   10.4789   -4.3641   20.9564 C   0  0  0  0  0  0  0  0  0  0  0  0
    8.7421   -5.1412   16.3650 C   0  0  0  0  0  0  0  0  0  0  0  0
   11.4353   -2.9204   17.8044 C   0  0  0  0  0  0  0  0  0  0  0  0
   11.1529   -4.3028   22.1277 C   0  0  0  0  0  0  0  0  0  0  0  0
   11.1290   -4.8502   19.8052 C   0  0  0  0  0  0  0  0  0  0  0  0
   12.4329   -4.2159   24.4224 C   0  0  0  0  0  0  0  0  0  0  0  0
    3.4740   -9.0387   16.5022 C   0  0  0  0  0  0  0  0  0  0  0  0
    6.8384   -7.9290   17.5282 N   0  0  0  0  0  0  0  0  0  0  0  0
    9.4126   -5.9853   18.4899 C   0  0  0  0  0  0  0  0  0  0  0  0
    4.2064  -10.3242   18.3302 C   0  0  0  0  0  0  0  0  0  0  0  0
    9.6599   -4.1551   16.4796 N   0  0  0  0  0  0  0  0  0  0  0  0
    7.0644   -6.4612   15.7375 N   0  0  0  0  0  0  0  0  0  0  0  0
    5.3549   -9.6322   18.3190 C   0  0  0  0  0  0  0  0  0  0  0  0
   10.3704   -4.9638   18.6510 C   0  0  0  0  0  0  0  0  0  0  0  0
    5.5935   -8.6419   17.4234 C   0  0  0  0  0  0  0  0  0  0  0  0
   13.0726   -4.6648   23.3394 O   0  0  0  0  0  0  0  0  0  0  0  0
    8.5955   -6.0705   17.3996 C   0  0  0  0  0  0  0  0  0  0  0  0
    4.6223   -8.3832   16.5030 C   0  0  0  0  0  0  0  0  0  0  0  0
   12.4690   -5.2624   19.9024 C   0  0  0  0  0  0  0  0  0  0  0  0
    3.2548   -9.9919   17.4189 C   0  0  0  0  0  0  0  0  0  0  0  0
   12.4767   -4.7393   22.1790 C   0  0  0  0  0  0  0  0  0  0  0  0
    7.8593   -5.3772   15.3569 N   0  0  0  0  0  0  0  0  0  0  0  0
    7.4412   -6.9038   16.9283 C   0  0  0  0  0  0  0  0  0  0  0  0
  1 21  4  0
  1 23  4  0
  2  5  1  0
  2 13  4  0
  2 16  4  0
  3  6  4  0
  3  7  4  0
  4 13  4  0
  4 19  4  0
  4 24  4  0
  6 23  4  0
  7 16  1  0
  7 21  4  0
  8 18  1  0
  9 20  4  0
  9 22  4  0
 10 17  1  0
 10 25  1  0
 11 16  4  0
 11 19  4  0
 12 15  4  0
 12 22  4  0
 14 24  4  0
 14 25  4  0
 15 17  4  0
 17 20  4  0
 18 23  1  0
 19 25  4  0
M  END
$$$$

 Created by Python create_sdf_string function

 25 28  0  0  0  0  0  0  0  0999 V2000
   13.1533   -5.2399   21.0682 C   0  0  0  0  0  0  0  0  0  0  0  0
   10.4729   -4.0295   17.6135 C   0  0  0  0  0  0  0  0  0  0  0  0
   10.4789   -4.3641   20.9564 C   0  0  0  0  0  0  0  0  0  0  0  0
    8.7421   -5.1412   16.3650 C   0  0  0  0  0  0  0  0  0  0  0  0
   11.4353   -2.9204   17.8044 C   0  0  0  0  0  0  0  0  0  0  0  0
   11.1529   -4.3028   22.1277 C   0  0  0  0  0  0  0  0  0  0  0  0
   11.1290   -4.8502   19.8052 C   0  0  0  0  0  0  0  0  0  0  0  0
   12.4329   -4.2159   24.4224 C   0  0  0  0  0  0  0  0  0  0  0  0
    3.4740   -9.0387   16.5022 C   0  0  0  0  0  0  0  0  0  0  0  0
    6.8384   -7.9290   17.5282 N   0  0  0  0  0  0  0  0  0  0  0  0
    9.4126   -5.9853   18.4899 C   0  0  0  0  0  0  0  0  0  0  0  0
    4.2064  -10.3242   18.3302 C   0  0  0  0  0  0  0  0  0  0  0  0
    9.6599   -4.1551   16.4796 N   0  0  0  0  0  0  0  0  0  0  0  0
    7.0644   -6.4612   15.7375 N   0  0  0  0  0  0  0  0  0  0  0  0
    5.3549   -9.6322   18.3190 C   0  0  0  0  0  0  0  0  0  0  0  0
   10.3704   -4.9638   18.6510 C   0  0  0  0  0  0  0  0  0  0  0  0
    5.5935   -8.6419   17.4234 C   0  0  0  0  0  0  0  0  0  0  0  0
   13.0726   -4.6648   23.3394 O   0  0  0  0  0  0  0  0  0  0  0  0
    8.5955   -6.0705   17.3996 C   0  0  0  0  0  0  0  0  0  0  0  0
    4.6223   -8.3832   16.5030 C   0  0  0  0  0  0  0  0  0  0  0  0
   12.4690   -5.2624   19.9024 C   0  0  0  0  0  0  0  0  0  0  0  0
    3.2548   -9.9919   17.4189 C   0  0  0  0  0  0  0  0  0  0  0  0
   12.4767   -4.7393   22.1790 C   0  0  0  0  0  0  0  0  0  0  0  0
    7.8593   -5.3772   15.3569 N   0  0  0  0  0  0  0  0  0  0  0  0
    7.4412   -6.9038   16.9283 C   0  0  0  0  0  0  0  0  0  0  0  0
  1 21  4  0
  1 23  4  0
  2  5  1  0
  2 13  4  0
  2 16  4  0
  3  6  4  0
  3  7  4  0
  4 13  4  0
  4 19  4  0
  4 24  4  0
  6 23  4  0
  7 16  1  0
  7 21  4  0
  8 18  1  0
  9 20  4  0
  9 22  4  0
 10 17  1  0
 10 25  1  0
 11 16  4  0
 11 19  4  0
 12 15  4  0
 12 22  4  0
 14 24  4  0
 14 25  4  0
 15 17  4  0
 17 20  4  0
 18 23  1  0
 19 25  4  0
M  END
$$$$

 Created by Python create_sdf_string function

 25 28  0  0  0  0  0  0  0  0999 V2000
   13.1533   -5.2399   21.0682 C   0  0  0  0  0  0  0  0  0  0  0  0
   10.4729   -4.0295   17.6135 C   0  0  0  0  0  0  0  0  0  0  0  0
   10.4789   -4.3641   20.9564 C   0  0  0  0  0  0  0  0  0  0  0  0
    8.7421   -5.1412   16.3650 C   0  0  0  0  0  0  0  0  0  0  0  0
   11.4353   -2.9204   17.8044 C   0  0  0  0  0  0  0  0  0  0  0  0
   11.1529   -4.3028   22.1277 C   0  0  0  0  0  0  0  0  0  0  0  0
   11.1290   -4.8502   19.8052 C   0  0  0  0  0  0  0  0  0  0  0  0
   12.4329   -4.2159   24.4224 C   0  0  0  0  0  0  0  0  0  0  0  0
    3.4740   -9.0387   16.5022 C   0  0  0  0  0  0  0  0  0  0  0  0
    6.8384   -7.9290   17.5282 N   0  0  0  0  0  0  0  0  0  0  0  0
    9.4126   -5.9853   18.4899 C   0  0  0  0  0  0  0  0  0  0  0  0
    4.2064  -10.3242   18.3302 C   0  0  0  0  0  0  0  0  0  0  0  0
    9.6599   -4.1551   16.4796 N   0  0  0  0  0  0  0  0  0  0  0  0
    7.0644   -6.4612   15.7375 N   0  0  0  0  0  0  0  0  0  0  0  0
    5.3549   -9.6322   18.3190 C   0  0  0  0  0  0  0  0  0  0  0  0
   10.3704   -4.9638   18.6510 C   0  0  0  0  0  0  0  0  0  0  0  0
    5.5935   -8.6419   17.4234 C   0  0  0  0  0  0  0  0  0  0  0  0
   13.0726   -4.6648   23.3394 O   0  0  0  0  0  0  0  0  0  0  0  0
    8.5955   -6.0705   17.3996 C   0  0  0  0  0  0  0  0  0  0  0  0
    4.6223   -8.3832   16.5030 C   0  0  0  0  0  0  0  0  0  0  0  0
   12.4690   -5.2624   19.9024 C   0  0  0  0  0  0  0  0  0  0  0  0
    3.2548   -9.9919   17.4189 C   0  0  0  0  0  0  0  0  0  0  0  0
   12.4767   -4.7393   22.1790 C   0  0  0  0  0  0  0  0  0  0  0  0
    7.8593   -5.3772   15.3569 N   0  0  0  0  0  0  0  0  0  0  0  0
    7.4412   -6.9038   16.9283 C   0  0  0  0  0  0  0  0  0  0  0  0
  1 21  4  0
  1 23  4  0
  2  5  1  0
  2 13  4  0
  2 16  4  0
  3  6  4  0
  3  7  4  0
  4 13  4  0
  4 19  4  0
  4 24  4  0
  6 23  4  0
  7 16  1  0
  7 21  4  0
  8 18  1  0
  9 20  4  0
  9 22  4  0
 10 17  1  0
 10 25  1  0
 11 16  4  0
 11 19  4  0
 12 15  4  0
 12 22  4  0
 14 24  4  0
 14 25  4  0
 15 17  4  0
 17 20  4  0
 18 23  1  0
 19 25  4  0
M  END
$$$$

 Created by Python create_sdf_string function

 25 28  0  0  0  0  0  0  0  0999 V2000
   13.1533   -5.2399   21.0682 C   0  0  0  0  0  0  0  0  0  0  0  0
   10.4729   -4.0295   17.6135 C   0  0  0  0  0  0  0  0  0  0  0  0
   10.4789   -4.3641   20.9564 C   0  0  0  0  0  0  0  0  0  0  0  0
    8.7421   -5.1412   16.3650 C   0  0  0  0  0  0  0  0  0  0  0  0
   11.4353   -2.9204   17.8044 C   0  0  0  0  0  0  0  0  0  0  0  0
   11.1529   -4.3028   22.1277 C   0  0  0  0  0  0  0  0  0  0  0  0
   11.1290   -4.8502   19.8052 C   0  0  0  0  0  0  0  0  0  0  0  0
   12.4329   -4.2159   24.4224 C   0  0  0  0  0  0  0  0  0  0  0  0
    3.4740   -9.0387   16.5022 C   0  0  0  0  0  0  0  0  0  0  0  0
    6.8384   -7.9290   17.5282 N   0  0  0  0  0  0  0  0  0  0  0  0
    9.4126   -5.9853   18.4899 C   0  0  0  0  0  0  0  0  0  0  0  0
    4.2064  -10.3242   18.3302 C   0  0  0  0  0  0  0  0  0  0  0  0
    9.6599   -4.1551   16.4796 N   0  0  0  0  0  0  0  0  0  0  0  0
    7.0644   -6.4612   15.7375 N   0  0  0  0  0  0  0  0  0  0  0  0
    5.3549   -9.6322   18.3190 C   0  0  0  0  0  0  0  0  0  0  0  0
   10.3704   -4.9638   18.6510 C   0  0  0  0  0  0  0  0  0  0  0  0
    5.5935   -8.6419   17.4234 C   0  0  0  0  0  0  0  0  0  0  0  0
   13.0726   -4.6648   23.3394 O   0  0  0  0  0  0  0  0  0  0  0  0
    8.5955   -6.0705   17.3996 C   0  0  0  0  0  0  0  0  0  0  0  0
    4.6223   -8.3832   16.5030 C   0  0  0  0  0  0  0  0  0  0  0  0
   12.4690   -5.2624   19.9024 C   0  0  0  0  0  0  0  0  0  0  0  0
    3.2548   -9.9919   17.4189 C   0  0  0  0  0  0  0  0  0  0  0  0
   12.4767   -4.7393   22.1790 C   0  0  0  0  0  0  0  0  0  0  0  0
    7.8593   -5.3772   15.3569 N   0  0  0  0  0  0  0  0  0  0  0  0
    7.4412   -6.9038   16.9283 C   0  0  0  0  0  0  0  0  0  0  0  0
  1 21  4  0
  1 23  4  0
  2  5  1  0
  2 13  4  0
  2 16  4  0
  3  6  4  0
  3  7  4  0
  4 13  4  0
  4 19  4  0
  4 24  4  0
  6 23  4  0
  7 16  1  0
  7 21  4  0
  8 18  1  0
  9 20  4  0
  9 22  4  0
 10 17  1  0
 10 25  1  0
 11 16  4  0
 11 19  4  0
 12 15  4  0
 12 22  4  0
 14 24  4  0
 14 25  4  0
 15 17  4  0
 17 20  4  0
 18 23  1  0
 19 25  4  0
M  END
$$$$

 Created by Python create_sdf_string function

 25 28  0  0  0  0  0  0  0  0999 V2000
   13.1533   -5.2399   21.0682 C   0  0  0  0  0  0  0  0  0  0  0  0
   10.4729   -4.0295   17.6135 C   0  0  0  0  0  0  0  0  0  0  0  0
   10.4789   -4.3641   20.9564 C   0  0  0  0  0  0  0  0  0  0  0  0
    8.7421   -5.1412   16.3650 C   0  0  0  0  0  0  0  0  0  0  0  0
   11.4353   -2.9204   17.8044 C   0  0  0  0  0  0  0  0  0  0  0  0
   11.1529   -4.3028   22.1277 C   0  0  0  0  0  0  0  0  0  0  0  0
   11.1290   -4.8502   19.8052 C   0  0  0  0  0  0  0  0  0  0  0  0
   12.4329   -4.2159   24.4224 C   0  0  0  0  0  0  0  0  0  0  0  0
    3.4740   -9.0387   16.5022 C   0  0  0  0  0  0  0  0  0  0  0  0
    6.8384   -7.9290   17.5282 N   0  0  0  0  0  0  0  0  0  0  0  0
    9.4126   -5.9853   18.4899 C   0  0  0  0  0  0  0  0  0  0  0  0
    4.2064  -10.3242   18.3302 C   0  0  0  0  0  0  0  0  0  0  0  0
    9.6599   -4.1551   16.4796 N   0  0  0  0  0  0  0  0  0  0  0  0
    7.0644   -6.4612   15.7375 N   0  0  0  0  0  0  0  0  0  0  0  0
    5.3549   -9.6322   18.3190 C   0  0  0  0  0  0  0  0  0  0  0  0
   10.3704   -4.9638   18.6510 C   0  0  0  0  0  0  0  0  0  0  0  0
    5.5935   -8.6419   17.4234 C   0  0  0  0  0  0  0  0  0  0  0  0
   13.0726   -4.6648   23.3394 O   0  0  0  0  0  0  0  0  0  0  0  0
    8.5955   -6.0705   17.3996 C   0  0  0  0  0  0  0  0  0  0  0  0
    4.6223   -8.3832   16.5030 C   0  0  0  0  0  0  0  0  0  0  0  0
   12.4690   -5.2624   19.9024 C   0  0  0  0  0  0  0  0  0  0  0  0
    3.2548   -9.9919   17.4189 C   0  0  0  0  0  0  0  0  0  0  0  0
   12.4767   -4.7393   22.1790 C   0  0  0  0  0  0  0  0  0  0  0  0
    7.8593   -5.3772   15.3569 N   0  0  0  0  0  0  0  0  0  0  0  0
    7.4412   -6.9038   16.9283 C   0  0  0  0  0  0  0  0  0  0  0  0
  1 21  4  0
  1 23  4  0
  2  5  1  0
  2 13  4  0
  2 16  4  0
  3  6  4  0
  3  7  4  0
  4 13  4  0
  4 19  4  0
  4 24  4  0
  6 23  4  0
  7 16  1  0
  7 21  4  0
  8 18  1  0
  9 20  4  0
  9 22  4  0
 10 17  1  0
 10 25  1  0
 11 16  4  0
 11 19  4  0
 12 15  4  0
 12 22  4  0
 14 24  4  0
 14 25  4  0
 15 17  4  0
 17 20  4  0
 18 23  1  0
 19 25  4  0
M  END
$$$$

 Created by Python create_sdf_string function

 25 28  0  0  0  0  0  0  0  0999 V2000
   13.1533   -5.2399   21.0682 C   0  0  0  0  0  0  0  0  0  0  0  0
   10.4729   -4.0295   17.6135 C   0  0  0  0  0  0  0  0  0  0  0  0
   10.4789   -4.3641   20.9564 C   0  0  0  0  0  0  0  0  0  0  0  0
    8.7421   -5.1412   16.3650 C   0  0  0  0  0  0  0  0  0  0  0  0
   11.4353   -2.9204   17.8044 C   0  0  0  0  0  0  0  0  0  0  0  0
   11.1529   -4.3028   22.1277 C   0  0  0  0  0  0  0  0  0  0  0  0
   11.1290   -4.8502   19.8052 C   0  0  0  0  0  0  0  0  0  0  0  0
   12.4329   -4.2159   24.4224 C   0  0  0  0  0  0  0  0  0  0  0  0
    3.4740   -9.0387   16.5022 C   0  0  0  0  0  0  0  0  0  0  0  0
    6.8384   -7.9290   17.5282 N   0  0  0  0  0  0  0  0  0  0  0  0
    9.4126   -5.9853   18.4899 C   0  0  0  0  0  0  0  0  0  0  0  0
    4.2064  -10.3242   18.3302 C   0  0  0  0  0  0  0  0  0  0  0  0
    9.6599   -4.1551   16.4796 N   0  0  0  0  0  0  0  0  0  0  0  0
    7.0644   -6.4612   15.7375 N   0  0  0  0  0  0  0  0  0  0  0  0
    5.3549   -9.6322   18.3190 C   0  0  0  0  0  0  0  0  0  0  0  0
   10.3704   -4.9638   18.6510 C   0  0  0  0  0  0  0  0  0  0  0  0
    5.5935   -8.6419   17.4234 C   0  0  0  0  0  0  0  0  0  0  0  0
   13.0726   -4.6648   23.3394 O   0  0  0  0  0  0  0  0  0  0  0  0
    8.5955   -6.0705   17.3996 C   0  0  0  0  0  0  0  0  0  0  0  0
    4.6223   -8.3832   16.5030 C   0  0  0  0  0  0  0  0  0  0  0  0
   12.4690   -5.2624   19.9024 C   0  0  0  0  0  0  0  0  0  0  0  0
    3.2548   -9.9919   17.4189 C   0  0  0  0  0  0  0  0  0  0  0  0
   12.4767   -4.7393   22.1790 C   0  0  0  0  0  0  0  0  0  0  0  0
    7.8593   -5.3772   15.3569 N   0  0  0  0  0  0  0  0  0  0  0  0
    7.4412   -6.9038   16.9283 C   0  0  0  0  0  0  0  0  0  0  0  0
  1 21  4  0
  1 23  4  0
  2  5  1  0
  2 13  4  0
  2 16  4  0
  3  6  4  0
  3  7  4  0
  4 13  4  0
  4 19  4  0
  4 24  4  0
  6 23  4  0
  7 16  1  0
  7 21  4  0
  8 18  1  0
  9 20  4  0
  9 22  4  0
 10 17  1  0
 10 25  1  0
 11 16  4  0
 11 19  4  0
 12 15  4  0
 12 22  4  0
 14 24  4  0
 14 25  4  0
 15 17  4  0
 17 20  4  0
 18 23  1  0
 19 25  4  0
M  END
$$$$

 Created by Python create_sdf_string function

 25 28  0  0  0  0  0  0  0  0999 V2000
   13.1533   -5.2399   21.0682 C   0  0  0  0  0  0  0  0  0  0  0  0
   10.4729   -4.0295   17.6135 C   0  0  0  0  0  0  0  0  0  0  0  0
   10.4789   -4.3641   20.9564 C   0  0  0  0  0  0  0  0  0  0  0  0
    8.7421   -5.1412   16.3650 C   0  0  0  0  0  0  0  0  0  0  0  0
   11.4353   -2.9204   17.8044 C   0  0  0  0  0  0  0  0  0  0  0  0
   11.1529   -4.3028   22.1277 C   0  0  0  0  0  0  0  0  0  0  0  0
   11.1290   -4.8502   19.8052 C   0  0  0  0  0  0  0  0  0  0  0  0
   12.4329   -4.2159   24.4224 C   0  0  0  0  0  0  0  0  0  0  0  0
    3.4740   -9.0387   16.5022 C   0  0  0  0  0  0  0  0  0  0  0  0
    6.8384   -7.9290   17.5282 N   0  0  0  0  0  0  0  0  0  0  0  0
    9.4126   -5.9853   18.4899 C   0  0  0  0  0  0  0  0  0  0  0  0
    4.2064  -10.3242   18.3302 C   0  0  0  0  0  0  0  0  0  0  0  0
    9.6599   -4.1551   16.4796 N   0  0  0  0  0  0  0  0  0  0  0  0
    7.0644   -6.4612   15.7375 N   0  0  0  0  0  0  0  0  0  0  0  0
    5.3549   -9.6322   18.3190 C   0  0  0  0  0  0  0  0  0  0  0  0
   10.3704   -4.9638   18.6510 C   0  0  0  0  0  0  0  0  0  0  0  0
    5.5935   -8.6419   17.4234 C   0  0  0  0  0  0  0  0  0  0  0  0
   13.0726   -4.6648   23.3394 O   0  0  0  0  0  0  0  0  0  0  0  0
    8.5955   -6.0705   17.3996 C   0  0  0  0  0  0  0  0  0  0  0  0
    4.6223   -8.3832   16.5030 C   0  0  0  0  0  0  0  0  0  0  0  0
   12.4690   -5.2624   19.9024 C   0  0  0  0  0  0  0  0  0  0  0  0
    3.2548   -9.9919   17.4189 C   0  0  0  0  0  0  0  0  0  0  0  0
   12.4767   -4.7393   22.1790 C   0  0  0  0  0  0  0  0  0  0  0  0
    7.8593   -5.3772   15.3569 N   0  0  0  0  0  0  0  0  0  0  0  0
    7.4412   -6.9038   16.9283 C   0  0  0  0  0  0  0  0  0  0  0  0
  1 21  4  0
  1 23  4  0
  2  5  1  0
  2 13  4  0
  2 16  4  0
  3  6  4  0
  3  7  4  0
  4 13  4  0
  4 19  4  0
  4 24  4  0
  6 23  4  0
  7 16  1  0
  7 21  4  0
  8 18  1  0
  9 20  4  0
  9 22  4  0
 10 17  1  0
 10 25  1  0
 11 16  4  0
 11 19  4  0
 12 15  4  0
 12 22  4  0
 14 24  4  0
 14 25  4  0
 15 17  4  0
 17 20  4  0
 18 23  1  0
 19 25  4  0
M  END
$$$$

 Created by Python create_sdf_string function

 25 28  0  0  0  0  0  0  0  0999 V2000
   13.1533   -5.2399   21.0682 C   0  0  0  0  0  0  0  0  0  0  0  0
   10.4729   -4.0295   17.6135 C   0  0  0  0  0  0  0  0  0  0  0  0
   10.4789   -4.3641   20.9564 C   0  0  0  0  0  0  0  0  0  0  0  0
    8.7421   -5.1412   16.3650 C   0  0  0  0  0  0  0  0  0  0  0  0
   11.4353   -2.9204   17.8044 C   0  0  0  0  0  0  0  0  0  0  0  0
   11.1529   -4.3028   22.1277 C   0  0  0  0  0  0  0  0  0  0  0  0
   11.1290   -4.8502   19.8052 C   0  0  0  0  0  0  0  0  0  0  0  0
   12.4329   -4.2159   24.4224 C   0  0  0  0  0  0  0  0  0  0  0  0
    3.4740   -9.0387   16.5022 C   0  0  0  0  0  0  0  0  0  0  0  0
    6.8384   -7.9290   17.5282 N   0  0  0  0  0  0  0  0  0  0  0  0
    9.4126   -5.9853   18.4899 C   0  0  0  0  0  0  0  0  0  0  0  0
    4.2064  -10.3242   18.3302 C   0  0  0  0  0  0  0  0  0  0  0  0
    9.6599   -4.1551   16.4796 N   0  0  0  0  0  0  0  0  0  0  0  0
    7.0644   -6.4612   15.7375 N   0  0  0  0  0  0  0  0  0  0  0  0
    5.3549   -9.6322   18.3190 C   0  0  0  0  0  0  0  0  0  0  0  0
   10.3704   -4.9638   18.6510 C   0  0  0  0  0  0  0  0  0  0  0  0
    5.5935   -8.6419   17.4234 C   0  0  0  0  0  0  0  0  0  0  0  0
   13.0726   -4.6648   23.3394 O   0  0  0  0  0  0  0  0  0  0  0  0
    8.5955   -6.0705   17.3996 C   0  0  0  0  0  0  0  0  0  0  0  0
    4.6223   -8.3832   16.5030 C   0  0  0  0  0  0  0  0  0  0  0  0
   12.4690   -5.2624   19.9024 C   0  0  0  0  0  0  0  0  0  0  0  0
    3.2548   -9.9919   17.4189 C   0  0  0  0  0  0  0  0  0  0  0  0
   12.4767   -4.7393   22.1790 C   0  0  0  0  0  0  0  0  0  0  0  0
    7.8593   -5.3772   15.3569 N   0  0  0  0  0  0  0  0  0  0  0  0
    7.4412   -6.9038   16.9283 C   0  0  0  0  0  0  0  0  0  0  0  0
  1 21  4  0
  1 23  4  0
  2  5  1  0
  2 13  4  0
  2 16  4  0
  3  6  4  0
  3  7  4  0
  4 13  4  0
  4 19  4  0
  4 24  4  0
  6 23  4  0
  7 16  1  0
  7 21  4  0
  8 18  1  0
  9 20  4  0
  9 22  4  0
 10 17  1  0
 10 25  1  0
 11 16  4  0
 11 19  4  0
 12 15  4  0
 12 22  4  0
 14 24  4  0
 14 25  4  0
 15 17  4  0
 17 20  4  0
 18 23  1  0
 19 25  4  0
M  END
$$$$

 Created by Python create_sdf_string function

 25 28  0  0  0  0  0  0  0  0999 V2000
   13.1533   -5.2399   21.0682 C   0  0  0  0  0  0  0  0  0  0  0  0
   10.4729   -4.0295   17.6135 C   0  0  0  0  0  0  0  0  0  0  0  0
   10.4789   -4.3641   20.9564 C   0  0  0  0  0  0  0  0  0  0  0  0
    8.7421   -5.1412   16.3650 C   0  0  0  0  0  0  0  0  0  0  0  0
   11.4353   -2.9204   17.8044 C   0  0  0  0  0  0  0  0  0  0  0  0
   11.1529   -4.3028   22.1277 C   0  0  0  0  0  0  0  0  0  0  0  0
   11.1290   -4.8502   19.8052 C   0  0  0  0  0  0  0  0  0  0  0  0
   12.4329   -4.2159   24.4224 C   0  0  0  0  0  0  0  0  0  0  0  0
    3.4740   -9.0387   16.5022 C   0  0  0  0  0  0  0  0  0  0  0  0
    6.8384   -7.9290   17.5282 N   0  0  0  0  0  0  0  0  0  0  0  0
    9.4126   -5.9853   18.4899 C   0  0  0  0  0  0  0  0  0  0  0  0
    4.2064  -10.3242   18.3302 C   0  0  0  0  0  0  0  0  0  0  0  0
    9.6599   -4.1551   16.4796 N   0  0  0  0  0  0  0  0  0  0  0  0
    7.0644   -6.4612   15.7375 N   0  0  0  0  0  0  0  0  0  0  0  0
    5.3549   -9.6322   18.3190 C   0  0  0  0  0  0  0  0  0  0  0  0
   10.3704   -4.9638   18.6510 C   0  0  0  0  0  0  0  0  0  0  0  0
    5.5935   -8.6419   17.4234 C   0  0  0  0  0  0  0  0  0  0  0  0
   13.0726   -4.6648   23.3394 O   0  0  0  0  0  0  0  0  0  0  0  0
    8.5955   -6.0705   17.3996 C   0  0  0  0  0  0  0  0  0  0  0  0
    4.6223   -8.3832   16.5030 C   0  0  0  0  0  0  0  0  0  0  0  0
   12.4690   -5.2624   19.9024 C   0  0  0  0  0  0  0  0  0  0  0  0
    3.2548   -9.9919   17.4189 C   0  0  0  0  0  0  0  0  0  0  0  0
   12.4767   -4.7393   22.1790 C   0  0  0  0  0  0  0  0  0  0  0  0
    7.8593   -5.3772   15.3569 N   0  0  0  0  0  0  0  0  0  0  0  0
    7.4412   -6.9038   16.9283 C   0  0  0  0  0  0  0  0  0  0  0  0
  1 21  4  0
  1 23  4  0
  2  5  1  0
  2 13  4  0
  2 16  4  0
  3  6  4  0
  3  7  4  0
  4 13  4  0
  4 19  4  0
  4 24  4  0
  6 23  4  0
  7 16  1  0
  7 21  4  0
  8 18  1  0
  9 20  4  0
  9 22  4  0
 10 17  1  0
 10 25  1  0
 11 16  4  0
 11 19  4  0
 12 15  4  0
 12 22  4  0
 14 24  4  0
 14 25  4  0
 15 17  4  0
 17 20  4  0
 18 23  1  0
 19 25  4  0
M  END
$$$$

 Created by Python create_sdf_string function

 25 28  0  0  0  0  0  0  0  0999 V2000
   13.1533   -5.2399   21.0682 C   0  0  0  0  0  0  0  0  0  0  0  0
   10.4729   -4.0295   17.6135 C   0  0  0  0  0  0  0  0  0  0  0  0
   10.4789   -4.3641   20.9564 C   0  0  0  0  0  0  0  0  0  0  0  0
    8.7421   -5.1412   16.3650 C   0  0  0  0  0  0  0  0  0  0  0  0
   11.4353   -2.9204   17.8044 C   0  0  0  0  0  0  0  0  0  0  0  0
   11.1529   -4.3028   22.1277 C   0  0  0  0  0  0  0  0  0  0  0  0
   11.1290   -4.8502   19.8052 C   0  0  0  0  0  0  0  0  0  0  0  0
   12.4329   -4.2159   24.4224 C   0  0  0  0  0  0  0  0  0  0  0  0
    3.4740   -9.0387   16.5022 C   0  0  0  0  0  0  0  0  0  0  0  0
    6.8384   -7.9290   17.5282 N   0  0  0  0  0  0  0  0  0  0  0  0
    9.4126   -5.9853   18.4899 C   0  0  0  0  0  0  0  0  0  0  0  0
    4.2064  -10.3242   18.3302 C   0  0  0  0  0  0  0  0  0  0  0  0
    9.6599   -4.1551   16.4796 N   0  0  0  0  0  0  0  0  0  0  0  0
    7.0644   -6.4612   15.7375 N   0  0  0  0  0  0  0  0  0  0  0  0
    5.3549   -9.6322   18.3190 C   0  0  0  0  0  0  0  0  0  0  0  0
   10.3704   -4.9638   18.6510 C   0  0  0  0  0  0  0  0  0  0  0  0
    5.5935   -8.6419   17.4234 C   0  0  0  0  0  0  0  0  0  0  0  0
   13.0726   -4.6648   23.3394 O   0  0  0  0  0  0  0  0  0  0  0  0
    8.5955   -6.0705   17.3996 C   0  0  0  0  0  0  0  0  0  0  0  0
    4.6223   -8.3832   16.5030 C   0  0  0  0  0  0  0  0  0  0  0  0
   12.4690   -5.2624   19.9024 C   0  0  0  0  0  0  0  0  0  0  0  0
    3.2548   -9.9919   17.4189 C   0  0  0  0  0  0  0  0  0  0  0  0
   12.4767   -4.7393   22.1790 C   0  0  0  0  0  0  0  0  0  0  0  0
    7.8593   -5.3772   15.3569 N   0  0  0  0  0  0  0  0  0  0  0  0
    7.4412   -6.9038   16.9283 C   0  0  0  0  0  0  0  0  0  0  0  0
  1 21  4  0
  1 23  4  0
  2  5  1  0
  2 13  4  0
  2 16  4  0
  3  6  4  0
  3  7  4  0
  4 13  4  0
  4 19  4  0
  4 24  4  0
  6 23  4  0
  7 16  1  0
  7 21  4  0
  8 18  1  0
  9 20  4  0
  9 22  4  0
 10 17  1  0
 10 25  1  0
 11 16  4  0
 11 19  4  0
 12 15  4  0
 12 22  4  0
 14 24  4  0
 14 25  4  0
 15 17  4  0
 17 20  4  0
 18 23  1  0
 19 25  4  0
M  END
$$$$

 Created by Python create_sdf_string function

 25 28  0  0  0  0  0  0  0  0999 V2000
   13.1533   -5.2399   21.0682 C   0  0  0  0  0  0  0  0  0  0  0  0
   10.4729   -4.0295   17.6135 C   0  0  0  0  0  0  0  0  0  0  0  0
   10.4789   -4.3641   20.9564 C   0  0  0  0  0  0  0  0  0  0  0  0
    8.7421   -5.1412   16.3650 C   0  0  0  0  0  0  0  0  0  0  0  0
   11.4353   -2.9204   17.8044 C   0  0  0  0  0  0  0  0  0  0  0  0
   11.1529   -4.3028   22.1277 C   0  0  0  0  0  0  0  0  0  0  0  0
   11.1290   -4.8502   19.8052 C   0  0  0  0  0  0  0  0  0  0  0  0
   12.4329   -4.2159   24.4224 C   0  0  0  0  0  0  0  0  0  0  0  0
    3.4740   -9.0387   16.5022 C   0  0  0  0  0  0  0  0  0  0  0  0
    6.8384   -7.9290   17.5282 N   0  0  0  0  0  0  0  0  0  0  0  0
    9.4126   -5.9853   18.4899 C   0  0  0  0  0  0  0  0  0  0  0  0
    4.2064  -10.3242   18.3302 C   0  0  0  0  0  0  0  0  0  0  0  0
    9.6599   -4.1551   16.4796 N   0  0  0  0  0  0  0  0  0  0  0  0
    7.0644   -6.4612   15.7375 N   0  0  0  0  0  0  0  0  0  0  0  0
    5.3549   -9.6322   18.3190 C   0  0  0  0  0  0  0  0  0  0  0  0
   10.3704   -4.9638   18.6510 C   0  0  0  0  0  0  0  0  0  0  0  0
    5.5935   -8.6419   17.4234 C   0  0  0  0  0  0  0  0  0  0  0  0
   13.0726   -4.6648   23.3394 O   0  0  0  0  0  0  0  0  0  0  0  0
    8.5955   -6.0705   17.3996 C   0  0  0  0  0  0  0  0  0  0  0  0
    4.6223   -8.3832   16.5030 C   0  0  0  0  0  0  0  0  0  0  0  0
   12.4690   -5.2624   19.9024 C   0  0  0  0  0  0  0  0  0  0  0  0
    3.2548   -9.9919   17.4189 C   0  0  0  0  0  0  0  0  0  0  0  0
   12.4767   -4.7393   22.1790 C   0  0  0  0  0  0  0  0  0  0  0  0
    7.8593   -5.3772   15.3569 N   0  0  0  0  0  0  0  0  0  0  0  0
    7.4412   -6.9038   16.9283 C   0  0  0  0  0  0  0  0  0  0  0  0
  1 21  4  0
  1 23  4  0
  2  5  1  0
  2 13  4  0
  2 16  4  0
  3  6  4  0
  3  7  4  0
  4 13  4  0
  4 19  4  0
  4 24  4  0
  6 23  4  0
  7 16  1  0
  7 21  4  0
  8 18  1  0
  9 20  4  0
  9 22  4  0
 10 17  1  0
 10 25  1  0
 11 16  4  0
 11 19  4  0
 12 15  4  0
 12 22  4  0
 14 24  4  0
 14 25  4  0
 15 17  4  0
 17 20  4  0
 18 23  1  0
 19 25  4  0
M  END
$$$$

 Created by Python create_sdf_string function

 25 28  0  0  0  0  0  0  0  0999 V2000
   13.1533   -5.2399   21.0682 C   0  0  0  0  0  0  0  0  0  0  0  0
   10.4729   -4.0295   17.6135 C   0  0  0  0  0  0  0  0  0  0  0  0
   10.4789   -4.3641   20.9564 C   0  0  0  0  0  0  0  0  0  0  0  0
    8.7421   -5.1412   16.3650 C   0  0  0  0  0  0  0  0  0  0  0  0
   11.4353   -2.9204   17.8044 C   0  0  0  0  0  0  0  0  0  0  0  0
   11.1529   -4.3028   22.1277 C   0  0  0  0  0  0  0  0  0  0  0  0
   11.1290   -4.8502   19.8052 C   0  0  0  0  0  0  0  0  0  0  0  0
   12.4329   -4.2159   24.4224 C   0  0  0  0  0  0  0  0  0  0  0  0
    3.4740   -9.0387   16.5022 C   0  0  0  0  0  0  0  0  0  0  0  0
    6.8384   -7.9290   17.5282 N   0  0  0  0  0  0  0  0  0  0  0  0
    9.4126   -5.9853   18.4899 C   0  0  0  0  0  0  0  0  0  0  0  0
    4.2064  -10.3242   18.3302 C   0  0  0  0  0  0  0  0  0  0  0  0
    9.6599   -4.1551   16.4796 N   0  0  0  0  0  0  0  0  0  0  0  0
    7.0644   -6.4612   15.7375 N   0  0  0  0  0  0  0  0  0  0  0  0
    5.3549   -9.6322   18.3190 C   0  0  0  0  0  0  0  0  0  0  0  0
   10.3704   -4.9638   18.6510 C   0  0  0  0  0  0  0  0  0  0  0  0
    5.5935   -8.6419   17.4234 C   0  0  0  0  0  0  0  0  0  0  0  0
   13.0726   -4.6648   23.3394 O   0  0  0  0  0  0  0  0  0  0  0  0
    8.5955   -6.0705   17.3996 C   0  0  0  0  0  0  0  0  0  0  0  0
    4.6223   -8.3832   16.5030 C   0  0  0  0  0  0  0  0  0  0  0  0
   12.4690   -5.2624   19.9024 C   0  0  0  0  0  0  0  0  0  0  0  0
    3.2548   -9.9919   17.4189 C   0  0  0  0  0  0  0  0  0  0  0  0
   12.4767   -4.7393   22.1790 C   0  0  0  0  0  0  0  0  0  0  0  0
    7.8593   -5.3772   15.3569 N   0  0  0  0  0  0  0  0  0  0  0  0
    7.4412   -6.9038   16.9283 C   0  0  0  0  0  0  0  0  0  0  0  0
  1 21  4  0
  1 23  4  0
  2  5  1  0
  2 13  4  0
  2 16  4  0
  3  6  4  0
  3  7  4  0
  4 13  4  0
  4 19  4  0
  4 24  4  0
  6 23  4  0
  7 16  1  0
  7 21  4  0
  8 18  1  0
  9 20  4  0
  9 22  4  0
 10 17  1  0
 10 25  1  0
 11 16  4  0
 11 19  4  0
 12 15  4  0
 12 22  4  0
 14 24  4  0
 14 25  4  0
 15 17  4  0
 17 20  4  0
 18 23  1  0
 19 25  4  0
M  END
$$$$

 Created by Python create_sdf_string function

 25 28  0  0  0  0  0  0  0  0999 V2000
   13.1533   -5.2399   21.0682 C   0  0  0  0  0  0  0  0  0  0  0  0
   10.4729   -4.0295   17.6135 C   0  0  0  0  0  0  0  0  0  0  0  0
   10.4789   -4.3641   20.9564 C   0  0  0  0  0  0  0  0  0  0  0  0
    8.7421   -5.1412   16.3650 C   0  0  0  0  0  0  0  0  0  0  0  0
   11.4353   -2.9204   17.8044 C   0  0  0  0  0  0  0  0  0  0  0  0
   11.1529   -4.3028   22.1277 C   0  0  0  0  0  0  0  0  0  0  0  0
   11.1290   -4.8502   19.8052 C   0  0  0  0  0  0  0  0  0  0  0  0
   12.4329   -4.2159   24.4224 C   0  0  0  0  0  0  0  0  0  0  0  0
    3.4740   -9.0387   16.5022 C   0  0  0  0  0  0  0  0  0  0  0  0
    6.8384   -7.9290   17.5282 N   0  0  0  0  0  0  0  0  0  0  0  0
    9.4126   -5.9853   18.4899 C   0  0  0  0  0  0  0  0  0  0  0  0
    4.2064  -10.3242   18.3302 C   0  0  0  0  0  0  0  0  0  0  0  0
    9.6599   -4.1551   16.4796 N   0  0  0  0  0  0  0  0  0  0  0  0
    7.0644   -6.4612   15.7375 N   0  0  0  0  0  0  0  0  0  0  0  0
    5.3549   -9.6322   18.3190 C   0  0  0  0  0  0  0  0  0  0  0  0
   10.3704   -4.9638   18.6510 C   0  0  0  0  0  0  0  0  0  0  0  0
    5.5935   -8.6419   17.4234 C   0  0  0  0  0  0  0  0  0  0  0  0
   13.0726   -4.6648   23.3394 O   0  0  0  0  0  0  0  0  0  0  0  0
    8.5955   -6.0705   17.3996 C   0  0  0  0  0  0  0  0  0  0  0  0
    4.6223   -8.3832   16.5030 C   0  0  0  0  0  0  0  0  0  0  0  0
   12.4690   -5.2624   19.9024 C   0  0  0  0  0  0  0  0  0  0  0  0
    3.2548   -9.9919   17.4189 C   0  0  0  0  0  0  0  0  0  0  0  0
   12.4767   -4.7393   22.1790 C   0  0  0  0  0  0  0  0  0  0  0  0
    7.8593   -5.3772   15.3569 N   0  0  0  0  0  0  0  0  0  0  0  0
    7.4412   -6.9038   16.9283 C   0  0  0  0  0  0  0  0  0  0  0  0
  1 21  4  0
  1 23  4  0
  2  5  1  0
  2 13  4  0
  2 16  4  0
  3  6  4  0
  3  7  4  0
  4 13  4  0
  4 19  4  0
  4 24  4  0
  6 23  4  0
  7 16  1  0
  7 21  4  0
  8 18  1  0
  9 20  4  0
  9 22  4  0
 10 17  1  0
 10 25  1  0
 11 16  4  0
 11 19  4  0
 12 15  4  0
 12 22  4  0
 14 24  4  0
 14 25  4  0
 15 17  4  0
 17 20  4  0
 18 23  1  0
 19 25  4  0
M  END
$$$$

 Created by Python create_sdf_string function

 25 28  0  0  0  0  0  0  0  0999 V2000
   13.1533   -5.2399   21.0682 C   0  0  0  0  0  0  0  0  0  0  0  0
   10.4729   -4.0295   17.6135 C   0  0  0  0  0  0  0  0  0  0  0  0
   10.4789   -4.3641   20.9564 C   0  0  0  0  0  0  0  0  0  0  0  0
    8.7421   -5.1412   16.3650 C   0  0  0  0  0  0  0  0  0  0  0  0
   11.4353   -2.9204   17.8044 C   0  0  0  0  0  0  0  0  0  0  0  0
   11.1529   -4.3028   22.1277 C   0  0  0  0  0  0  0  0  0  0  0  0
   11.1290   -4.8502   19.8052 C   0  0  0  0  0  0  0  0  0  0  0  0
   12.4329   -4.2159   24.4224 C   0  0  0  0  0  0  0  0  0  0  0  0
    3.4740   -9.0387   16.5022 C   0  0  0  0  0  0  0  0  0  0  0  0
    6.8384   -7.9290   17.5282 N   0  0  0  0  0  0  0  0  0  0  0  0
    9.4126   -5.9853   18.4899 C   0  0  0  0  0  0  0  0  0  0  0  0
    4.2064  -10.3242   18.3302 C   0  0  0  0  0  0  0  0  0  0  0  0
    9.6599   -4.1551   16.4796 N   0  0  0  0  0  0  0  0  0  0  0  0
    7.0644   -6.4612   15.7375 N   0  0  0  0  0  0  0  0  0  0  0  0
    5.3549   -9.6322   18.3190 C   0  0  0  0  0  0  0  0  0  0  0  0
   10.3704   -4.9638   18.6510 C   0  0  0  0  0  0  0  0  0  0  0  0
    5.5935   -8.6419   17.4234 C   0  0  0  0  0  0  0  0  0  0  0  0
   13.0726   -4.6648   23.3394 O   0  0  0  0  0  0  0  0  0  0  0  0
    8.5955   -6.0705   17.3996 C   0  0  0  0  0  0  0  0  0  0  0  0
    4.6223   -8.3832   16.5030 C   0  0  0  0  0  0  0  0  0  0  0  0
   12.4690   -5.2624   19.9024 C   0  0  0  0  0  0  0  0  0  0  0  0
    3.2548   -9.9919   17.4189 C   0  0  0  0  0  0  0  0  0  0  0  0
   12.4767   -4.7393   22.1790 C   0  0  0  0  0  0  0  0  0  0  0  0
    7.8593   -5.3772   15.3569 N   0  0  0  0  0  0  0  0  0  0  0  0
    7.4412   -6.9038   16.9283 C   0  0  0  0  0  0  0  0  0  0  0  0
  1 21  4  0
  1 23  4  0
  2  5  1  0
  2 13  4  0
  2 16  4  0
  3  6  4  0
  3  7  4  0
  4 13  4  0
  4 19  4  0
  4 24  4  0
  6 23  4  0
  7 16  1  0
  7 21  4  0
  8 18  1  0
  9 20  4  0
  9 22  4  0
 10 17  1  0
 10 25  1  0
 11 16  4  0
 11 19  4  0
 12 15  4  0
 12 22  4  0
 14 24  4  0
 14 25  4  0
 15 17  4  0
 17 20  4  0
 18 23  1  0
 19 25  4  0
M  END
$$$$

 Created by Python create_sdf_string function

 25 28  0  0  0  0  0  0  0  0999 V2000
   13.1533   -5.2399   21.0682 C   0  0  0  0  0  0  0  0  0  0  0  0
   10.4729   -4.0295   17.6135 C   0  0  0  0  0  0  0  0  0  0  0  0
   10.4789   -4.3641   20.9564 C   0  0  0  0  0  0  0  0  0  0  0  0
    8.7421   -5.1412   16.3650 C   0  0  0  0  0  0  0  0  0  0  0  0
   11.4353   -2.9204   17.8044 C   0  0  0  0  0  0  0  0  0  0  0  0
   11.1529   -4.3028   22.1277 C   0  0  0  0  0  0  0  0  0  0  0  0
   11.1290   -4.8502   19.8052 C   0  0  0  0  0  0  0  0  0  0  0  0
   12.4329   -4.2159   24.4224 C   0  0  0  0  0  0  0  0  0  0  0  0
    3.4740   -9.0387   16.5022 C   0  0  0  0  0  0  0  0  0  0  0  0
    6.8384   -7.9290   17.5282 N   0  0  0  0  0  0  0  0  0  0  0  0
    9.4126   -5.9853   18.4899 C   0  0  0  0  0  0  0  0  0  0  0  0
    4.2064  -10.3242   18.3302 C   0  0  0  0  0  0  0  0  0  0  0  0
    9.6599   -4.1551   16.4796 N   0  0  0  0  0  0  0  0  0  0  0  0
    7.0644   -6.4612   15.7375 N   0  0  0  0  0  0  0  0  0  0  0  0
    5.3549   -9.6322   18.3190 C   0  0  0  0  0  0  0  0  0  0  0  0
   10.3704   -4.9638   18.6510 C   0  0  0  0  0  0  0  0  0  0  0  0
    5.5935   -8.6419   17.4234 C   0  0  0  0  0  0  0  0  0  0  0  0
   13.0726   -4.6648   23.3394 O   0  0  0  0  0  0  0  0  0  0  0  0
    8.5955   -6.0705   17.3996 C   0  0  0  0  0  0  0  0  0  0  0  0
    4.6223   -8.3832   16.5030 C   0  0  0  0  0  0  0  0  0  0  0  0
   12.4690   -5.2624   19.9024 C   0  0  0  0  0  0  0  0  0  0  0  0
    3.2548   -9.9919   17.4189 C   0  0  0  0  0  0  0  0  0  0  0  0
   12.4767   -4.7393   22.1790 C   0  0  0  0  0  0  0  0  0  0  0  0
    7.8593   -5.3772   15.3569 N   0  0  0  0  0  0  0  0  0  0  0  0
    7.4412   -6.9038   16.9283 C   0  0  0  0  0  0  0  0  0  0  0  0
  1 21  4  0
  1 23  4  0
  2  5  1  0
  2 13  4  0
  2 16  4  0
  3  6  4  0
  3  7  4  0
  4 13  4  0
  4 19  4  0
  4 24  4  0
  6 23  4  0
  7 16  1  0
  7 21  4  0
  8 18  1  0
  9 20  4  0
  9 22  4  0
 10 17  1  0
 10 25  1  0
 11 16  4  0
 11 19  4  0
 12 15  4  0
 12 22  4  0
 14 24  4  0
 14 25  4  0
 15 17  4  0
 17 20  4  0
 18 23  1  0
 19 25  4  0
M  END
$$$$

 Created by Python create_sdf_string function

 25 28  0  0  0  0  0  0  0  0999 V2000
   13.1533   -5.2399   21.0682 C   0  0  0  0  0  0  0  0  0  0  0  0
   10.4729   -4.0295   17.6135 C   0  0  0  0  0  0  0  0  0  0  0  0
   10.4789   -4.3641   20.9564 C   0  0  0  0  0  0  0  0  0  0  0  0
    8.7421   -5.1412   16.3650 C   0  0  0  0  0  0  0  0  0  0  0  0
   11.4353   -2.9204   17.8044 C   0  0  0  0  0  0  0  0  0  0  0  0
   11.1529   -4.3028   22.1277 C   0  0  0  0  0  0  0  0  0  0  0  0
   11.1290   -4.8502   19.8052 C   0  0  0  0  0  0  0  0  0  0  0  0
   12.4329   -4.2159   24.4224 C   0  0  0  0  0  0  0  0  0  0  0  0
    3.4740   -9.0387   16.5022 C   0  0  0  0  0  0  0  0  0  0  0  0
    6.8384   -7.9290   17.5282 N   0  0  0  0  0  0  0  0  0  0  0  0
    9.4126   -5.9853   18.4899 C   0  0  0  0  0  0  0  0  0  0  0  0
    4.2064  -10.3242   18.3302 C   0  0  0  0  0  0  0  0  0  0  0  0
    9.6599   -4.1551   16.4796 N   0  0  0  0  0  0  0  0  0  0  0  0
    7.0644   -6.4612   15.7375 N   0  0  0  0  0  0  0  0  0  0  0  0
    5.3549   -9.6322   18.3190 C   0  0  0  0  0  0  0  0  0  0  0  0
   10.3704   -4.9638   18.6510 C   0  0  0  0  0  0  0  0  0  0  0  0
    5.5935   -8.6419   17.4234 C   0  0  0  0  0  0  0  0  0  0  0  0
   13.0726   -4.6648   23.3394 O   0  0  0  0  0  0  0  0  0  0  0  0
    8.5955   -6.0705   17.3996 C   0  0  0  0  0  0  0  0  0  0  0  0
    4.6223   -8.3832   16.5030 C   0  0  0  0  0  0  0  0  0  0  0  0
   12.4690   -5.2624   19.9024 C   0  0  0  0  0  0  0  0  0  0  0  0
    3.2548   -9.9919   17.4189 C   0  0  0  0  0  0  0  0  0  0  0  0
   12.4767   -4.7393   22.1790 C   0  0  0  0  0  0  0  0  0  0  0  0
    7.8593   -5.3772   15.3569 N   0  0  0  0  0  0  0  0  0  0  0  0
    7.4412   -6.9038   16.9283 C   0  0  0  0  0  0  0  0  0  0  0  0
  1 21  4  0
  1 23  4  0
  2  5  1  0
  2 13  4  0
  2 16  4  0
  3  6  4  0
  3  7  4  0
  4 13  4  0
  4 19  4  0
  4 24  4  0
  6 23  4  0
  7 16  1  0
  7 21  4  0
  8 18  1  0
  9 20  4  0
  9 22  4  0
 10 17  1  0
 10 25  1  0
 11 16  4  0
 11 19  4  0
 12 15  4  0
 12 22  4  0
 14 24  4  0
 14 25  4  0
 15 17  4  0
 17 20  4  0
 18 23  1  0
 19 25  4  0
M  END
$$$$

 Created by Python create_sdf_string function

 25 28  0  0  0  0  0  0  0  0999 V2000
   13.1533   -5.2399   21.0682 C   0  0  0  0  0  0  0  0  0  0  0  0
   10.4729   -4.0295   17.6135 C   0  0  0  0  0  0  0  0  0  0  0  0
   10.4789   -4.3641   20.9564 C   0  0  0  0  0  0  0  0  0  0  0  0
    8.7421   -5.1412   16.3650 C   0  0  0  0  0  0  0  0  0  0  0  0
   11.4353   -2.9204   17.8044 C   0  0  0  0  0  0  0  0  0  0  0  0
   11.1529   -4.3028   22.1277 C   0  0  0  0  0  0  0  0  0  0  0  0
   11.1290   -4.8502   19.8052 C   0  0  0  0  0  0  0  0  0  0  0  0
   12.4329   -4.2159   24.4224 C   0  0  0  0  0  0  0  0  0  0  0  0
    3.4740   -9.0387   16.5022 C   0  0  0  0  0  0  0  0  0  0  0  0
    6.8384   -7.9290   17.5282 N   0  0  0  0  0  0  0  0  0  0  0  0
    9.4126   -5.9853   18.4899 C   0  0  0  0  0  0  0  0  0  0  0  0
    4.2064  -10.3242   18.3302 C   0  0  0  0  0  0  0  0  0  0  0  0
    9.6599   -4.1551   16.4796 N   0  0  0  0  0  0  0  0  0  0  0  0
    7.0644   -6.4612   15.7375 N   0  0  0  0  0  0  0  0  0  0  0  0
    5.3549   -9.6322   18.3190 C   0  0  0  0  0  0  0  0  0  0  0  0
   10.3704   -4.9638   18.6510 C   0  0  0  0  0  0  0  0  0  0  0  0
    5.5935   -8.6419   17.4234 C   0  0  0  0  0  0  0  0  0  0  0  0
   13.0726   -4.6648   23.3394 O   0  0  0  0  0  0  0  0  0  0  0  0
    8.5955   -6.0705   17.3996 C   0  0  0  0  0  0  0  0  0  0  0  0
    4.6223   -8.3832   16.5030 C   0  0  0  0  0  0  0  0  0  0  0  0
   12.4690   -5.2624   19.9024 C   0  0  0  0  0  0  0  0  0  0  0  0
    3.2548   -9.9919   17.4189 C   0  0  0  0  0  0  0  0  0  0  0  0
   12.4767   -4.7393   22.1790 C   0  0  0  0  0  0  0  0  0  0  0  0
    7.8593   -5.3772   15.3569 N   0  0  0  0  0  0  0  0  0  0  0  0
    7.4412   -6.9038   16.9283 C   0  0  0  0  0  0  0  0  0  0  0  0
  1 21  4  0
  1 23  4  0
  2  5  1  0
  2 13  4  0
  2 16  4  0
  3  6  4  0
  3  7  4  0
  4 13  4  0
  4 19  4  0
  4 24  4  0
  6 23  4  0
  7 16  1  0
  7 21  4  0
  8 18  1  0
  9 20  4  0
  9 22  4  0
 10 17  1  0
 10 25  1  0
 11 16  4  0
 11 19  4  0
 12 15  4  0
 12 22  4  0
 14 24  4  0
 14 25  4  0
 15 17  4  0
 17 20  4  0
 18 23  1  0
 19 25  4  0
M  END
$$$$

 Created by Python create_sdf_string function

 25 28  0  0  0  0  0  0  0  0999 V2000
   13.1533   -5.2399   21.0682 C   0  0  0  0  0  0  0  0  0  0  0  0
   10.4729   -4.0295   17.6135 C   0  0  0  0  0  0  0  0  0  0  0  0
   10.4789   -4.3641   20.9564 C   0  0  0  0  0  0  0  0  0  0  0  0
    8.7421   -5.1412   16.3650 C   0  0  0  0  0  0  0  0  0  0  0  0
   11.4353   -2.9204   17.8044 C   0  0  0  0  0  0  0  0  0  0  0  0
   11.1529   -4.3028   22.1277 C   0  0  0  0  0  0  0  0  0  0  0  0
   11.1290   -4.8502   19.8052 C   0  0  0  0  0  0  0  0  0  0  0  0
   12.4329   -4.2159   24.4224 C   0  0  0  0  0  0  0  0  0  0  0  0
    3.4740   -9.0387   16.5022 C   0  0  0  0  0  0  0  0  0  0  0  0
    6.8384   -7.9290   17.5282 N   0  0  0  0  0  0  0  0  0  0  0  0
    9.4126   -5.9853   18.4899 C   0  0  0  0  0  0  0  0  0  0  0  0
    4.2064  -10.3242   18.3302 C   0  0  0  0  0  0  0  0  0  0  0  0
    9.6599   -4.1551   16.4796 N   0  0  0  0  0  0  0  0  0  0  0  0
    7.0644   -6.4612   15.7375 N   0  0  0  0  0  0  0  0  0  0  0  0
    5.3549   -9.6322   18.3190 C   0  0  0  0  0  0  0  0  0  0  0  0
   10.3704   -4.9638   18.6510 C   0  0  0  0  0  0  0  0  0  0  0  0
    5.5935   -8.6419   17.4234 C   0  0  0  0  0  0  0  0  0  0  0  0
   13.0726   -4.6648   23.3394 O   0  0  0  0  0  0  0  0  0  0  0  0
    8.5955   -6.0705   17.3996 C   0  0  0  0  0  0  0  0  0  0  0  0
    4.6223   -8.3832   16.5030 C   0  0  0  0  0  0  0  0  0  0  0  0
   12.4690   -5.2624   19.9024 C   0  0  0  0  0  0  0  0  0  0  0  0
    3.2548   -9.9919   17.4189 C   0  0  0  0  0  0  0  0  0  0  0  0
   12.4767   -4.7393   22.1790 C   0  0  0  0  0  0  0  0  0  0  0  0
    7.8593   -5.3772   15.3569 N   0  0  0  0  0  0  0  0  0  0  0  0
    7.4412   -6.9038   16.9283 C   0  0  0  0  0  0  0  0  0  0  0  0
  1 21  4  0
  1 23  4  0
  2  5  1  0
  2 13  4  0
  2 16  4  0
  3  6  4  0
  3  7  4  0
  4 13  4  0
  4 19  4  0
  4 24  4  0
  6 23  4  0
  7 16  1  0
  7 21  4  0
  8 18  1  0
  9 20  4  0
  9 22  4  0
 10 17  1  0
 10 25  1  0
 11 16  4  0
 11 19  4  0
 12 15  4  0
 12 22  4  0
 14 24  4  0
 14 25  4  0
 15 17  4  0
 17 20  4  0
 18 23  1  0
 19 25  4  0
M  END
$$$$

 Created by Python create_sdf_string function

 25 28  0  0  0  0  0  0  0  0999 V2000
   13.1533   -5.2399   21.0682 C   0  0  0  0  0  0  0  0  0  0  0  0
   10.4729   -4.0295   17.6135 C   0  0  0  0  0  0  0  0  0  0  0  0
   10.4789   -4.3641   20.9564 C   0  0  0  0  0  0  0  0  0  0  0  0
    8.7421   -5.1412   16.3650 C   0  0  0  0  0  0  0  0  0  0  0  0
   11.4353   -2.9204   17.8044 C   0  0  0  0  0  0  0  0  0  0  0  0
   11.1529   -4.3028   22.1277 C   0  0  0  0  0  0  0  0  0  0  0  0
   11.1290   -4.8502   19.8052 C   0  0  0  0  0  0  0  0  0  0  0  0
   12.4329   -4.2159   24.4224 C   0  0  0  0  0  0  0  0  0  0  0  0
    3.4740   -9.0387   16.5022 C   0  0  0  0  0  0  0  0  0  0  0  0
    6.8384   -7.9290   17.5282 N   0  0  0  0  0  0  0  0  0  0  0  0
    9.4126   -5.9853   18.4899 C   0  0  0  0  0  0  0  0  0  0  0  0
    4.2064  -10.3242   18.3302 C   0  0  0  0  0  0  0  0  0  0  0  0
    9.6599   -4.1551   16.4796 N   0  0  0  0  0  0  0  0  0  0  0  0
    7.0644   -6.4612   15.7375 N   0  0  0  0  0  0  0  0  0  0  0  0
    5.3549   -9.6322   18.3190 C   0  0  0  0  0  0  0  0  0  0  0  0
   10.3704   -4.9638   18.6510 C   0  0  0  0  0  0  0  0  0  0  0  0
    5.5935   -8.6419   17.4234 C   0  0  0  0  0  0  0  0  0  0  0  0
   13.0726   -4.6648   23.3394 O   0  0  0  0  0  0  0  0  0  0  0  0
    8.5955   -6.0705   17.3996 C   0  0  0  0  0  0  0  0  0  0  0  0
    4.6223   -8.3832   16.5030 C   0  0  0  0  0  0  0  0  0  0  0  0
   12.4690   -5.2624   19.9024 C   0  0  0  0  0  0  0  0  0  0  0  0
    3.2548   -9.9919   17.4189 C   0  0  0  0  0  0  0  0  0  0  0  0
   12.4767   -4.7393   22.1790 C   0  0  0  0  0  0  0  0  0  0  0  0
    7.8593   -5.3772   15.3569 N   0  0  0  0  0  0  0  0  0  0  0  0
    7.4412   -6.9038   16.9283 C   0  0  0  0  0  0  0  0  0  0  0  0
  1 21  4  0
  1 23  4  0
  2  5  1  0
  2 13  4  0
  2 16  4  0
  3  6  4  0
  3  7  4  0
  4 13  4  0
  4 19  4  0
  4 24  4  0
  6 23  4  0
  7 16  1  0
  7 21  4  0
  8 18  1  0
  9 20  4  0
  9 22  4  0
 10 17  1  0
 10 25  1  0
 11 16  4  0
 11 19  4  0
 12 15  4  0
 12 22  4  0
 14 24  4  0
 14 25  4  0
 15 17  4  0
 17 20  4  0
 18 23  1  0
 19 25  4  0
M  END
$$$$

 Created by Python create_sdf_string function

 25 28  0  0  0  0  0  0  0  0999 V2000
   13.1533   -5.2399   21.0682 C   0  0  0  0  0  0  0  0  0  0  0  0
   10.4729   -4.0295   17.6135 C   0  0  0  0  0  0  0  0  0  0  0  0
   10.4789   -4.3641   20.9564 C   0  0  0  0  0  0  0  0  0  0  0  0
    8.7421   -5.1412   16.3650 C   0  0  0  0  0  0  0  0  0  0  0  0
   11.4353   -2.9204   17.8044 C   0  0  0  0  0  0  0  0  0  0  0  0
   11.1529   -4.3028   22.1277 C   0  0  0  0  0  0  0  0  0  0  0  0
   11.1290   -4.8502   19.8052 C   0  0  0  0  0  0  0  0  0  0  0  0
   12.4329   -4.2159   24.4224 C   0  0  0  0  0  0  0  0  0  0  0  0
    3.4740   -9.0387   16.5022 C   0  0  0  0  0  0  0  0  0  0  0  0
    6.8384   -7.9290   17.5282 N   0  0  0  0  0  0  0  0  0  0  0  0
    9.4126   -5.9853   18.4899 C   0  0  0  0  0  0  0  0  0  0  0  0
    4.2064  -10.3242   18.3302 C   0  0  0  0  0  0  0  0  0  0  0  0
    9.6599   -4.1551   16.4796 N   0  0  0  0  0  0  0  0  0  0  0  0
    7.0644   -6.4612   15.7375 N   0  0  0  0  0  0  0  0  0  0  0  0
    5.3549   -9.6322   18.3190 C   0  0  0  0  0  0  0  0  0  0  0  0
   10.3704   -4.9638   18.6510 C   0  0  0  0  0  0  0  0  0  0  0  0
    5.5935   -8.6419   17.4234 C   0  0  0  0  0  0  0  0  0  0  0  0
   13.0726   -4.6648   23.3394 O   0  0  0  0  0  0  0  0  0  0  0  0
    8.5955   -6.0705   17.3996 C   0  0  0  0  0  0  0  0  0  0  0  0
    4.6223   -8.3832   16.5030 C   0  0  0  0  0  0  0  0  0  0  0  0
   12.4690   -5.2624   19.9024 C   0  0  0  0  0  0  0  0  0  0  0  0
    3.2548   -9.9919   17.4189 C   0  0  0  0  0  0  0  0  0  0  0  0
   12.4767   -4.7393   22.1790 C   0  0  0  0  0  0  0  0  0  0  0  0
    7.8593   -5.3772   15.3569 N   0  0  0  0  0  0  0  0  0  0  0  0
    7.4412   -6.9038   16.9283 C   0  0  0  0  0  0  0  0  0  0  0  0
  1 21  4  0
  1 23  4  0
  2  5  1  0
  2 13  4  0
  2 16  4  0
  3  6  4  0
  3  7  4  0
  4 13  4  0
  4 19  4  0
  4 24  4  0
  6 23  4  0
  7 16  1  0
  7 21  4  0
  8 18  1  0
  9 20  4  0
  9 22  4  0
 10 17  1  0
 10 25  1  0
 11 16  4  0
 11 19  4  0
 12 15  4  0
 12 22  4  0
 14 24  4  0
 14 25  4  0
 15 17  4  0
 17 20  4  0
 18 23  1  0
 19 25  4  0
M  END
$$$$

 Created by Python create_sdf_string function

 25 28  0  0  0  0  0  0  0  0999 V2000
   13.1533   -5.2399   21.0682 C   0  0  0  0  0  0  0  0  0  0  0  0
   10.4729   -4.0295   17.6135 C   0  0  0  0  0  0  0  0  0  0  0  0
   10.4789   -4.3641   20.9564 C   0  0  0  0  0  0  0  0  0  0  0  0
    8.7421   -5.1412   16.3650 C   0  0  0  0  0  0  0  0  0  0  0  0
   11.4353   -2.9204   17.8044 C   0  0  0  0  0  0  0  0  0  0  0  0
   11.1529   -4.3028   22.1277 C   0  0  0  0  0  0  0  0  0  0  0  0
   11.1290   -4.8502   19.8052 C   0  0  0  0  0  0  0  0  0  0  0  0
   12.4329   -4.2159   24.4224 C   0  0  0  0  0  0  0  0  0  0  0  0
    3.4740   -9.0387   16.5022 C   0  0  0  0  0  0  0  0  0  0  0  0
    6.8384   -7.9290   17.5282 N   0  0  0  0  0  0  0  0  0  0  0  0
    9.4126   -5.9853   18.4899 C   0  0  0  0  0  0  0  0  0  0  0  0
    4.2064  -10.3242   18.3302 C   0  0  0  0  0  0  0  0  0  0  0  0
    9.6599   -4.1551   16.4796 N   0  0  0  0  0  0  0  0  0  0  0  0
    7.0644   -6.4612   15.7375 N   0  0  0  0  0  0  0  0  0  0  0  0
    5.3549   -9.6322   18.3190 C   0  0  0  0  0  0  0  0  0  0  0  0
   10.3704   -4.9638   18.6510 C   0  0  0  0  0  0  0  0  0  0  0  0
    5.5935   -8.6419   17.4234 C   0  0  0  0  0  0  0  0  0  0  0  0
   13.0726   -4.6648   23.3394 O   0  0  0  0  0  0  0  0  0  0  0  0
    8.5955   -6.0705   17.3996 C   0  0  0  0  0  0  0  0  0  0  0  0
    4.6223   -8.3832   16.5030 C   0  0  0  0  0  0  0  0  0  0  0  0
   12.4690   -5.2624   19.9024 C   0  0  0  0  0  0  0  0  0  0  0  0
    3.2548   -9.9919   17.4189 C   0  0  0  0  0  0  0  0  0  0  0  0
   12.4767   -4.7393   22.1790 C   0  0  0  0  0  0  0  0  0  0  0  0
    7.8593   -5.3772   15.3569 N   0  0  0  0  0  0  0  0  0  0  0  0
    7.4412   -6.9038   16.9283 C   0  0  0  0  0  0  0  0  0  0  0  0
  1 21  4  0
  1 23  4  0
  2  5  1  0
  2 13  4  0
  2 16  4  0
  3  6  4  0
  3  7  4  0
  4 13  4  0
  4 19  4  0
  4 24  4  0
  6 23  4  0
  7 16  1  0
  7 21  4  0
  8 18  1  0
  9 20  4  0
  9 22  4  0
 10 17  1  0
 10 25  1  0
 11 16  4  0
 11 19  4  0
 12 15  4  0
 12 22  4  0
 14 24  4  0
 14 25  4  0
 15 17  4  0
 17 20  4  0
 18 23  1  0
 19 25  4  0
M  END
$$$$

 Created by Python create_sdf_string function

 25 28  0  0  0  0  0  0  0  0999 V2000
   13.1533   -5.2399   21.0682 C   0  0  0  0  0  0  0  0  0  0  0  0
   10.4729   -4.0295   17.6135 C   0  0  0  0  0  0  0  0  0  0  0  0
   10.4789   -4.3641   20.9564 C   0  0  0  0  0  0  0  0  0  0  0  0
    8.7421   -5.1412   16.3650 C   0  0  0  0  0  0  0  0  0  0  0  0
   11.4353   -2.9204   17.8044 C   0  0  0  0  0  0  0  0  0  0  0  0
   11.1529   -4.3028   22.1277 C   0  0  0  0  0  0  0  0  0  0  0  0
   11.1290   -4.8502   19.8052 C   0  0  0  0  0  0  0  0  0  0  0  0
   12.4329   -4.2159   24.4224 C   0  0  0  0  0  0  0  0  0  0  0  0
    3.4740   -9.0387   16.5022 C   0  0  0  0  0  0  0  0  0  0  0  0
    6.8384   -7.9290   17.5282 N   0  0  0  0  0  0  0  0  0  0  0  0
    9.4126   -5.9853   18.4899 C   0  0  0  0  0  0  0  0  0  0  0  0
    4.2064  -10.3242   18.3302 C   0  0  0  0  0  0  0  0  0  0  0  0
    9.6599   -4.1551   16.4796 N   0  0  0  0  0  0  0  0  0  0  0  0
    7.0644   -6.4612   15.7375 N   0  0  0  0  0  0  0  0  0  0  0  0
    5.3549   -9.6322   18.3190 C   0  0  0  0  0  0  0  0  0  0  0  0
   10.3704   -4.9638   18.6510 C   0  0  0  0  0  0  0  0  0  0  0  0
    5.5935   -8.6419   17.4234 C   0  0  0  0  0  0  0  0  0  0  0  0
   13.0726   -4.6648   23.3394 O   0  0  0  0  0  0  0  0  0  0  0  0
    8.5955   -6.0705   17.3996 C   0  0  0  0  0  0  0  0  0  0  0  0
    4.6223   -8.3832   16.5030 C   0  0  0  0  0  0  0  0  0  0  0  0
   12.4690   -5.2624   19.9024 C   0  0  0  0  0  0  0  0  0  0  0  0
    3.2548   -9.9919   17.4189 C   0  0  0  0  0  0  0  0  0  0  0  0
   12.4767   -4.7393   22.1790 C   0  0  0  0  0  0  0  0  0  0  0  0
    7.8593   -5.3772   15.3569 N   0  0  0  0  0  0  0  0  0  0  0  0
    7.4412   -6.9038   16.9283 C   0  0  0  0  0  0  0  0  0  0  0  0
  1 21  4  0
  1 23  4  0
  2  5  1  0
  2 13  4  0
  2 16  4  0
  3  6  4  0
  3  7  4  0
  4 13  4  0
  4 19  4  0
  4 24  4  0
  6 23  4  0
  7 16  1  0
  7 21  4  0
  8 18  1  0
  9 20  4  0
  9 22  4  0
 10 17  1  0
 10 25  1  0
 11 16  4  0
 11 19  4  0
 12 15  4  0
 12 22  4  0
 14 24  4  0
 14 25  4  0
 15 17  4  0
 17 20  4  0
 18 23  1  0
 19 25  4  0
M  END
$$$$

 Created by Python create_sdf_string function

 25 28  0  0  0  0  0  0  0  0999 V2000
   13.1533   -5.2399   21.0682 C   0  0  0  0  0  0  0  0  0  0  0  0
   10.4729   -4.0295   17.6135 C   0  0  0  0  0  0  0  0  0  0  0  0
   10.4789   -4.3641   20.9564 C   0  0  0  0  0  0  0  0  0  0  0  0
    8.7421   -5.1412   16.3650 C   0  0  0  0  0  0  0  0  0  0  0  0
   11.4353   -2.9204   17.8044 C   0  0  0  0  0  0  0  0  0  0  0  0
   11.1529   -4.3028   22.1277 C   0  0  0  0  0  0  0  0  0  0  0  0
   11.1290   -4.8502   19.8052 C   0  0  0  0  0  0  0  0  0  0  0  0
   12.4329   -4.2159   24.4224 C   0  0  0  0  0  0  0  0  0  0  0  0
    3.4740   -9.0387   16.5022 C   0  0  0  0  0  0  0  0  0  0  0  0
    6.8384   -7.9290   17.5282 N   0  0  0  0  0  0  0  0  0  0  0  0
    9.4126   -5.9853   18.4899 C   0  0  0  0  0  0  0  0  0  0  0  0
    4.2064  -10.3242   18.3302 C   0  0  0  0  0  0  0  0  0  0  0  0
    9.6599   -4.1551   16.4796 N   0  0  0  0  0  0  0  0  0  0  0  0
    7.0644   -6.4612   15.7375 N   0  0  0  0  0  0  0  0  0  0  0  0
    5.3549   -9.6322   18.3190 C   0  0  0  0  0  0  0  0  0  0  0  0
   10.3704   -4.9638   18.6510 C   0  0  0  0  0  0  0  0  0  0  0  0
    5.5935   -8.6419   17.4234 C   0  0  0  0  0  0  0  0  0  0  0  0
   13.0726   -4.6648   23.3394 O   0  0  0  0  0  0  0  0  0  0  0  0
    8.5955   -6.0705   17.3996 C   0  0  0  0  0  0  0  0  0  0  0  0
    4.6223   -8.3832   16.5030 C   0  0  0  0  0  0  0  0  0  0  0  0
   12.4690   -5.2624   19.9024 C   0  0  0  0  0  0  0  0  0  0  0  0
    3.2548   -9.9919   17.4189 C   0  0  0  0  0  0  0  0  0  0  0  0
   12.4767   -4.7393   22.1790 C   0  0  0  0  0  0  0  0  0  0  0  0
    7.8593   -5.3772   15.3569 N   0  0  0  0  0  0  0  0  0  0  0  0
    7.4412   -6.9038   16.9283 C   0  0  0  0  0  0  0  0  0  0  0  0
  1 21  4  0
  1 23  4  0
  2  5  1  0
  2 13  4  0
  2 16  4  0
  3  6  4  0
  3  7  4  0
  4 13  4  0
  4 19  4  0
  4 24  4  0
  6 23  4  0
  7 16  1  0
  7 21  4  0
  8 18  1  0
  9 20  4  0
  9 22  4  0
 10 17  1  0
 10 25  1  0
 11 16  4  0
 11 19  4  0
 12 15  4  0
 12 22  4  0
 14 24  4  0
 14 25  4  0
 15 17  4  0
 17 20  4  0
 18 23  1  0
 19 25  4  0
M  END
$$$$

 Created by Python create_sdf_string function

 25 28  0  0  0  0  0  0  0  0999 V2000
   13.1533   -5.2399   21.0682 C   0  0  0  0  0  0  0  0  0  0  0  0
   10.4729   -4.0295   17.6135 C   0  0  0  0  0  0  0  0  0  0  0  0
   10.4789   -4.3641   20.9564 C   0  0  0  0  0  0  0  0  0  0  0  0
    8.7421   -5.1412   16.3650 C   0  0  0  0  0  0  0  0  0  0  0  0
   11.4353   -2.9204   17.8044 C   0  0  0  0  0  0  0  0  0  0  0  0
   11.1529   -4.3028   22.1277 C   0  0  0  0  0  0  0  0  0  0  0  0
   11.1290   -4.8502   19.8052 C   0  0  0  0  0  0  0  0  0  0  0  0
   12.4329   -4.2159   24.4224 C   0  0  0  0  0  0  0  0  0  0  0  0
    3.4740   -9.0387   16.5022 C   0  0  0  0  0  0  0  0  0  0  0  0
    6.8384   -7.9290   17.5282 N   0  0  0  0  0  0  0  0  0  0  0  0
    9.4126   -5.9853   18.4899 C   0  0  0  0  0  0  0  0  0  0  0  0
    4.2064  -10.3242   18.3302 C   0  0  0  0  0  0  0  0  0  0  0  0
    9.6599   -4.1551   16.4796 N   0  0  0  0  0  0  0  0  0  0  0  0
    7.0644   -6.4612   15.7375 N   0  0  0  0  0  0  0  0  0  0  0  0
    5.3549   -9.6322   18.3190 C   0  0  0  0  0  0  0  0  0  0  0  0
   10.3704   -4.9638   18.6510 C   0  0  0  0  0  0  0  0  0  0  0  0
    5.5935   -8.6419   17.4234 C   0  0  0  0  0  0  0  0  0  0  0  0
   13.0726   -4.6648   23.3394 O   0  0  0  0  0  0  0  0  0  0  0  0
    8.5955   -6.0705   17.3996 C   0  0  0  0  0  0  0  0  0  0  0  0
    4.6223   -8.3832   16.5030 C   0  0  0  0  0  0  0  0  0  0  0  0
   12.4690   -5.2624   19.9024 C   0  0  0  0  0  0  0  0  0  0  0  0
    3.2548   -9.9919   17.4189 C   0  0  0  0  0  0  0  0  0  0  0  0
   12.4767   -4.7393   22.1790 C   0  0  0  0  0  0  0  0  0  0  0  0
    7.8593   -5.3772   15.3569 N   0  0  0  0  0  0  0  0  0  0  0  0
    7.4412   -6.9038   16.9283 C   0  0  0  0  0  0  0  0  0  0  0  0
  1 21  4  0
  1 23  4  0
  2  5  1  0
  2 13  4  0
  2 16  4  0
  3  6  4  0
  3  7  4  0
  4 13  4  0
  4 19  4  0
  4 24  4  0
  6 23  4  0
  7 16  1  0
  7 21  4  0
  8 18  1  0
  9 20  4  0
  9 22  4  0
 10 17  1  0
 10 25  1  0
 11 16  4  0
 11 19  4  0
 12 15  4  0
 12 22  4  0
 14 24  4  0
 14 25  4  0
 15 17  4  0
 17 20  4  0
 18 23  1  0
 19 25  4  0
M  END
$$$$

 Created by Python create_sdf_string function

 25 28  0  0  0  0  0  0  0  0999 V2000
   13.1533   -5.2399   21.0682 C   0  0  0  0  0  0  0  0  0  0  0  0
   10.4729   -4.0295   17.6135 C   0  0  0  0  0  0  0  0  0  0  0  0
   10.4789   -4.3641   20.9564 C   0  0  0  0  0  0  0  0  0  0  0  0
    8.7421   -5.1412   16.3650 C   0  0  0  0  0  0  0  0  0  0  0  0
   11.4353   -2.9204   17.8044 C   0  0  0  0  0  0  0  0  0  0  0  0
   11.1529   -4.3028   22.1277 C   0  0  0  0  0  0  0  0  0  0  0  0
   11.1290   -4.8502   19.8052 C   0  0  0  0  0  0  0  0  0  0  0  0
   12.4329   -4.2159   24.4224 C   0  0  0  0  0  0  0  0  0  0  0  0
    3.4740   -9.0387   16.5022 C   0  0  0  0  0  0  0  0  0  0  0  0
    6.8384   -7.9290   17.5282 N   0  0  0  0  0  0  0  0  0  0  0  0
    9.4126   -5.9853   18.4899 C   0  0  0  0  0  0  0  0  0  0  0  0
    4.2064  -10.3242   18.3302 C   0  0  0  0  0  0  0  0  0  0  0  0
    9.6599   -4.1551   16.4796 N   0  0  0  0  0  0  0  0  0  0  0  0
    7.0644   -6.4612   15.7375 N   0  0  0  0  0  0  0  0  0  0  0  0
    5.3549   -9.6322   18.3190 C   0  0  0  0  0  0  0  0  0  0  0  0
   10.3704   -4.9638   18.6510 C   0  0  0  0  0  0  0  0  0  0  0  0
    5.5935   -8.6419   17.4234 C   0  0  0  0  0  0  0  0  0  0  0  0
   13.0726   -4.6648   23.3394 O   0  0  0  0  0  0  0  0  0  0  0  0
    8.5955   -6.0705   17.3996 C   0  0  0  0  0  0  0  0  0  0  0  0
    4.6223   -8.3832   16.5030 C   0  0  0  0  0  0  0  0  0  0  0  0
   12.4690   -5.2624   19.9024 C   0  0  0  0  0  0  0  0  0  0  0  0
    3.2548   -9.9919   17.4189 C   0  0  0  0  0  0  0  0  0  0  0  0
   12.4767   -4.7393   22.1790 C   0  0  0  0  0  0  0  0  0  0  0  0
    7.8593   -5.3772   15.3569 N   0  0  0  0  0  0  0  0  0  0  0  0
    7.4412   -6.9038   16.9283 C   0  0  0  0  0  0  0  0  0  0  0  0
  1 21  4  0
  1 23  4  0
  2  5  1  0
  2 13  4  0
  2 16  4  0
  3  6  4  0
  3  7  4  0
  4 13  4  0
  4 19  4  0
  4 24  4  0
  6 23  4  0
  7 16  1  0
  7 21  4  0
  8 18  1  0
  9 20  4  0
  9 22  4  0
 10 17  1  0
 10 25  1  0
 11 16  4  0
 11 19  4  0
 12 15  4  0
 12 22  4  0
 14 24  4  0
 14 25  4  0
 15 17  4  0
 17 20  4  0
 18 23  1  0
 19 25  4  0
M  END
$$$$

 Created by Python create_sdf_string function

 25 28  0  0  0  0  0  0  0  0999 V2000
   13.1533   -5.2399   21.0682 C   0  0  0  0  0  0  0  0  0  0  0  0
   10.4729   -4.0295   17.6135 C   0  0  0  0  0  0  0  0  0  0  0  0
   10.4789   -4.3641   20.9564 C   0  0  0  0  0  0  0  0  0  0  0  0
    8.7421   -5.1412   16.3650 C   0  0  0  0  0  0  0  0  0  0  0  0
   11.4353   -2.9204   17.8044 C   0  0  0  0  0  0  0  0  0  0  0  0
   11.1529   -4.3028   22.1277 C   0  0  0  0  0  0  0  0  0  0  0  0
   11.1290   -4.8502   19.8052 C   0  0  0  0  0  0  0  0  0  0  0  0
   12.4329   -4.2159   24.4224 C   0  0  0  0  0  0  0  0  0  0  0  0
    3.4740   -9.0387   16.5022 C   0  0  0  0  0  0  0  0  0  0  0  0
    6.8384   -7.9290   17.5282 N   0  0  0  0  0  0  0  0  0  0  0  0
    9.4126   -5.9853   18.4899 C   0  0  0  0  0  0  0  0  0  0  0  0
    4.2064  -10.3242   18.3302 C   0  0  0  0  0  0  0  0  0  0  0  0
    9.6599   -4.1551   16.4796 N   0  0  0  0  0  0  0  0  0  0  0  0
    7.0644   -6.4612   15.7375 N   0  0  0  0  0  0  0  0  0  0  0  0
    5.3549   -9.6322   18.3190 C   0  0  0  0  0  0  0  0  0  0  0  0
   10.3704   -4.9638   18.6510 C   0  0  0  0  0  0  0  0  0  0  0  0
    5.5935   -8.6419   17.4234 C   0  0  0  0  0  0  0  0  0  0  0  0
   13.0726   -4.6648   23.3394 O   0  0  0  0  0  0  0  0  0  0  0  0
    8.5955   -6.0705   17.3996 C   0  0  0  0  0  0  0  0  0  0  0  0
    4.6223   -8.3832   16.5030 C   0  0  0  0  0  0  0  0  0  0  0  0
   12.4690   -5.2624   19.9024 C   0  0  0  0  0  0  0  0  0  0  0  0
    3.2548   -9.9919   17.4189 C   0  0  0  0  0  0  0  0  0  0  0  0
   12.4767   -4.7393   22.1790 C   0  0  0  0  0  0  0  0  0  0  0  0
    7.8593   -5.3772   15.3569 N   0  0  0  0  0  0  0  0  0  0  0  0
    7.4412   -6.9038   16.9283 C   0  0  0  0  0  0  0  0  0  0  0  0
  1 21  4  0
  1 23  4  0
  2  5  1  0
  2 13  4  0
  2 16  4  0
  3  6  4  0
  3  7  4  0
  4 13  4  0
  4 19  4  0
  4 24  4  0
  6 23  4  0
  7 16  1  0
  7 21  4  0
  8 18  1  0
  9 20  4  0
  9 22  4  0
 10 17  1  0
 10 25  1  0
 11 16  4  0
 11 19  4  0
 12 15  4  0
 12 22  4  0
 14 24  4  0
 14 25  4  0
 15 17  4  0
 17 20  4  0
 18 23  1  0
 19 25  4  0
M  END
$$$$

 Created by Python create_sdf_string function

 25 28  0  0  0  0  0  0  0  0999 V2000
   13.1533   -5.2399   21.0682 C   0  0  0  0  0  0  0  0  0  0  0  0
   10.4729   -4.0295   17.6135 C   0  0  0  0  0  0  0  0  0  0  0  0
   10.4789   -4.3641   20.9564 C   0  0  0  0  0  0  0  0  0  0  0  0
    8.7421   -5.1412   16.3650 C   0  0  0  0  0  0  0  0  0  0  0  0
   11.4353   -2.9204   17.8044 C   0  0  0  0  0  0  0  0  0  0  0  0
   11.1529   -4.3028   22.1277 C   0  0  0  0  0  0  0  0  0  0  0  0
   11.1290   -4.8502   19.8052 C   0  0  0  0  0  0  0  0  0  0  0  0
   12.4329   -4.2159   24.4224 C   0  0  0  0  0  0  0  0  0  0  0  0
    3.4740   -9.0387   16.5022 C   0  0  0  0  0  0  0  0  0  0  0  0
    6.8384   -7.9290   17.5282 N   0  0  0  0  0  0  0  0  0  0  0  0
    9.4126   -5.9853   18.4899 C   0  0  0  0  0  0  0  0  0  0  0  0
    4.2064  -10.3242   18.3302 C   0  0  0  0  0  0  0  0  0  0  0  0
    9.6599   -4.1551   16.4796 N   0  0  0  0  0  0  0  0  0  0  0  0
    7.0644   -6.4612   15.7375 N   0  0  0  0  0  0  0  0  0  0  0  0
    5.3549   -9.6322   18.3190 C   0  0  0  0  0  0  0  0  0  0  0  0
   10.3704   -4.9638   18.6510 C   0  0  0  0  0  0  0  0  0  0  0  0
    5.5935   -8.6419   17.4234 C   0  0  0  0  0  0  0  0  0  0  0  0
   13.0726   -4.6648   23.3394 O   0  0  0  0  0  0  0  0  0  0  0  0
    8.5955   -6.0705   17.3996 C   0  0  0  0  0  0  0  0  0  0  0  0
    4.6223   -8.3832   16.5030 C   0  0  0  0  0  0  0  0  0  0  0  0
   12.4690   -5.2624   19.9024 C   0  0  0  0  0  0  0  0  0  0  0  0
    3.2548   -9.9919   17.4189 C   0  0  0  0  0  0  0  0  0  0  0  0
   12.4767   -4.7393   22.1790 C   0  0  0  0  0  0  0  0  0  0  0  0
    7.8593   -5.3772   15.3569 N   0  0  0  0  0  0  0  0  0  0  0  0
    7.4412   -6.9038   16.9283 C   0  0  0  0  0  0  0  0  0  0  0  0
  1 21  4  0
  1 23  4  0
  2  5  1  0
  2 13  4  0
  2 16  4  0
  3  6  4  0
  3  7  4  0
  4 13  4  0
  4 19  4  0
  4 24  4  0
  6 23  4  0
  7 16  1  0
  7 21  4  0
  8 18  1  0
  9 20  4  0
  9 22  4  0
 10 17  1  0
 10 25  1  0
 11 16  4  0
 11 19  4  0
 12 15  4  0
 12 22  4  0
 14 24  4  0
 14 25  4  0
 15 17  4  0
 17 20  4  0
 18 23  1  0
 19 25  4  0
M  END
$$$$

 Created by Python create_sdf_string function

 25 28  0  0  0  0  0  0  0  0999 V2000
   13.1533   -5.2399   21.0682 C   0  0  0  0  0  0  0  0  0  0  0  0
   10.4729   -4.0295   17.6135 C   0  0  0  0  0  0  0  0  0  0  0  0
   10.4789   -4.3641   20.9564 C   0  0  0  0  0  0  0  0  0  0  0  0
    8.7421   -5.1412   16.3650 C   0  0  0  0  0  0  0  0  0  0  0  0
   11.4353   -2.9204   17.8044 C   0  0  0  0  0  0  0  0  0  0  0  0
   11.1529   -4.3028   22.1277 C   0  0  0  0  0  0  0  0  0  0  0  0
   11.1290   -4.8502   19.8052 C   0  0  0  0  0  0  0  0  0  0  0  0
   12.4329   -4.2159   24.4224 C   0  0  0  0  0  0  0  0  0  0  0  0
    3.4740   -9.0387   16.5022 C   0  0  0  0  0  0  0  0  0  0  0  0
    6.8384   -7.9290   17.5282 N   0  0  0  0  0  0  0  0  0  0  0  0
    9.4126   -5.9853   18.4899 C   0  0  0  0  0  0  0  0  0  0  0  0
    4.2064  -10.3242   18.3302 C   0  0  0  0  0  0  0  0  0  0  0  0
    9.6599   -4.1551   16.4796 N   0  0  0  0  0  0  0  0  0  0  0  0
    7.0644   -6.4612   15.7375 N   0  0  0  0  0  0  0  0  0  0  0  0
    5.3549   -9.6322   18.3190 C   0  0  0  0  0  0  0  0  0  0  0  0
   10.3704   -4.9638   18.6510 C   0  0  0  0  0  0  0  0  0  0  0  0
    5.5935   -8.6419   17.4234 C   0  0  0  0  0  0  0  0  0  0  0  0
   13.0726   -4.6648   23.3394 O   0  0  0  0  0  0  0  0  0  0  0  0
    8.5955   -6.0705   17.3996 C   0  0  0  0  0  0  0  0  0  0  0  0
    4.6223   -8.3832   16.5030 C   0  0  0  0  0  0  0  0  0  0  0  0
   12.4690   -5.2624   19.9024 C   0  0  0  0  0  0  0  0  0  0  0  0
    3.2548   -9.9919   17.4189 C   0  0  0  0  0  0  0  0  0  0  0  0
   12.4767   -4.7393   22.1790 C   0  0  0  0  0  0  0  0  0  0  0  0
    7.8593   -5.3772   15.3569 N   0  0  0  0  0  0  0  0  0  0  0  0
    7.4412   -6.9038   16.9283 C   0  0  0  0  0  0  0  0  0  0  0  0
  1 21  4  0
  1 23  4  0
  2  5  1  0
  2 13  4  0
  2 16  4  0
  3  6  4  0
  3  7  4  0
  4 13  4  0
  4 19  4  0
  4 24  4  0
  6 23  4  0
  7 16  1  0
  7 21  4  0
  8 18  1  0
  9 20  4  0
  9 22  4  0
 10 17  1  0
 10 25  1  0
 11 16  4  0
 11 19  4  0
 12 15  4  0
 12 22  4  0
 14 24  4  0
 14 25  4  0
 15 17  4  0
 17 20  4  0
 18 23  1  0
 19 25  4  0
M  END
$$$$

 Created by Python create_sdf_string function

 25 28  0  0  0  0  0  0  0  0999 V2000
   13.1533   -5.2399   21.0682 C   0  0  0  0  0  0  0  0  0  0  0  0
   10.4729   -4.0295   17.6135 C   0  0  0  0  0  0  0  0  0  0  0  0
   10.4789   -4.3641   20.9564 C   0  0  0  0  0  0  0  0  0  0  0  0
    8.7421   -5.1412   16.3650 C   0  0  0  0  0  0  0  0  0  0  0  0
   11.4353   -2.9204   17.8044 C   0  0  0  0  0  0  0  0  0  0  0  0
   11.1529   -4.3028   22.1277 C   0  0  0  0  0  0  0  0  0  0  0  0
   11.1290   -4.8502   19.8052 C   0  0  0  0  0  0  0  0  0  0  0  0
   12.4329   -4.2159   24.4224 C   0  0  0  0  0  0  0  0  0  0  0  0
    3.4740   -9.0387   16.5022 C   0  0  0  0  0  0  0  0  0  0  0  0
    6.8384   -7.9290   17.5282 N   0  0  0  0  0  0  0  0  0  0  0  0
    9.4126   -5.9853   18.4899 C   0  0  0  0  0  0  0  0  0  0  0  0
    4.2064  -10.3242   18.3302 C   0  0  0  0  0  0  0  0  0  0  0  0
    9.6599   -4.1551   16.4796 N   0  0  0  0  0  0  0  0  0  0  0  0
    7.0644   -6.4612   15.7375 N   0  0  0  0  0  0  0  0  0  0  0  0
    5.3549   -9.6322   18.3190 C   0  0  0  0  0  0  0  0  0  0  0  0
   10.3704   -4.9638   18.6510 C   0  0  0  0  0  0  0  0  0  0  0  0
    5.5935   -8.6419   17.4234 C   0  0  0  0  0  0  0  0  0  0  0  0
   13.0726   -4.6648   23.3394 O   0  0  0  0  0  0  0  0  0  0  0  0
    8.5955   -6.0705   17.3996 C   0  0  0  0  0  0  0  0  0  0  0  0
    4.6223   -8.3832   16.5030 C   0  0  0  0  0  0  0  0  0  0  0  0
   12.4690   -5.2624   19.9024 C   0  0  0  0  0  0  0  0  0  0  0  0
    3.2548   -9.9919   17.4189 C   0  0  0  0  0  0  0  0  0  0  0  0
   12.4767   -4.7393   22.1790 C   0  0  0  0  0  0  0  0  0  0  0  0
    7.8593   -5.3772   15.3569 N   0  0  0  0  0  0  0  0  0  0  0  0
    7.4412   -6.9038   16.9283 C   0  0  0  0  0  0  0  0  0  0  0  0
  1 21  4  0
  1 23  4  0
  2  5  1  0
  2 13  4  0
  2 16  4  0
  3  6  4  0
  3  7  4  0
  4 13  4  0
  4 19  4  0
  4 24  4  0
  6 23  4  0
  7 16  1  0
  7 21  4  0
  8 18  1  0
  9 20  4  0
  9 22  4  0
 10 17  1  0
 10 25  1  0
 11 16  4  0
 11 19  4  0
 12 15  4  0
 12 22  4  0
 14 24  4  0
 14 25  4  0
 15 17  4  0
 17 20  4  0
 18 23  1  0
 19 25  4  0
M  END
$$$$

 Created by Python create_sdf_string function

 25 28  0  0  0  0  0  0  0  0999 V2000
   13.1533   -5.2399   21.0682 C   0  0  0  0  0  0  0  0  0  0  0  0
   10.4729   -4.0295   17.6135 C   0  0  0  0  0  0  0  0  0  0  0  0
   10.4789   -4.3641   20.9564 C   0  0  0  0  0  0  0  0  0  0  0  0
    8.7421   -5.1412   16.3650 C   0  0  0  0  0  0  0  0  0  0  0  0
   11.4353   -2.9204   17.8044 C   0  0  0  0  0  0  0  0  0  0  0  0
   11.1529   -4.3028   22.1277 C   0  0  0  0  0  0  0  0  0  0  0  0
   11.1290   -4.8502   19.8052 C   0  0  0  0  0  0  0  0  0  0  0  0
   12.4329   -4.2159   24.4224 C   0  0  0  0  0  0  0  0  0  0  0  0
    3.4740   -9.0387   16.5022 C   0  0  0  0  0  0  0  0  0  0  0  0
    6.8384   -7.9290   17.5282 N   0  0  0  0  0  0  0  0  0  0  0  0
    9.4126   -5.9853   18.4899 C   0  0  0  0  0  0  0  0  0  0  0  0
    4.2064  -10.3242   18.3302 C   0  0  0  0  0  0  0  0  0  0  0  0
    9.6599   -4.1551   16.4796 N   0  0  0  0  0  0  0  0  0  0  0  0
    7.0644   -6.4612   15.7375 N   0  0  0  0  0  0  0  0  0  0  0  0
    5.3549   -9.6322   18.3190 C   0  0  0  0  0  0  0  0  0  0  0  0
   10.3704   -4.9638   18.6510 C   0  0  0  0  0  0  0  0  0  0  0  0
    5.5935   -8.6419   17.4234 C   0  0  0  0  0  0  0  0  0  0  0  0
   13.0726   -4.6648   23.3394 O   0  0  0  0  0  0  0  0  0  0  0  0
    8.5955   -6.0705   17.3996 C   0  0  0  0  0  0  0  0  0  0  0  0
    4.6223   -8.3832   16.5030 C   0  0  0  0  0  0  0  0  0  0  0  0
   12.4690   -5.2624   19.9024 C   0  0  0  0  0  0  0  0  0  0  0  0
    3.2548   -9.9919   17.4189 C   0  0  0  0  0  0  0  0  0  0  0  0
   12.4767   -4.7393   22.1790 C   0  0  0  0  0  0  0  0  0  0  0  0
    7.8593   -5.3772   15.3569 N   0  0  0  0  0  0  0  0  0  0  0  0
    7.4412   -6.9038   16.9283 C   0  0  0  0  0  0  0  0  0  0  0  0
  1 21  4  0
  1 23  4  0
  2  5  1  0
  2 13  4  0
  2 16  4  0
  3  6  4  0
  3  7  4  0
  4 13  4  0
  4 19  4  0
  4 24  4  0
  6 23  4  0
  7 16  1  0
  7 21  4  0
  8 18  1  0
  9 20  4  0
  9 22  4  0
 10 17  1  0
 10 25  1  0
 11 16  4  0
 11 19  4  0
 12 15  4  0
 12 22  4  0
 14 24  4  0
 14 25  4  0
 15 17  4  0
 17 20  4  0
 18 23  1  0
 19 25  4  0
M  END
$$$$

 Created by Python create_sdf_string function

 25 28  0  0  0  0  0  0  0  0999 V2000
   13.1533   -5.2399   21.0682 C   0  0  0  0  0  0  0  0  0  0  0  0
   10.4729   -4.0295   17.6135 C   0  0  0  0  0  0  0  0  0  0  0  0
   10.4789   -4.3641   20.9564 C   0  0  0  0  0  0  0  0  0  0  0  0
    8.7421   -5.1412   16.3650 C   0  0  0  0  0  0  0  0  0  0  0  0
   11.4353   -2.9204   17.8044 C   0  0  0  0  0  0  0  0  0  0  0  0
   11.1529   -4.3028   22.1277 C   0  0  0  0  0  0  0  0  0  0  0  0
   11.1290   -4.8502   19.8052 C   0  0  0  0  0  0  0  0  0  0  0  0
   12.4329   -4.2159   24.4224 C   0  0  0  0  0  0  0  0  0  0  0  0
    3.4740   -9.0387   16.5022 C   0  0  0  0  0  0  0  0  0  0  0  0
    6.8384   -7.9290   17.5282 N   0  0  0  0  0  0  0  0  0  0  0  0
    9.4126   -5.9853   18.4899 C   0  0  0  0  0  0  0  0  0  0  0  0
    4.2064  -10.3242   18.3302 C   0  0  0  0  0  0  0  0  0  0  0  0
    9.6599   -4.1551   16.4796 N   0  0  0  0  0  0  0  0  0  0  0  0
    7.0644   -6.4612   15.7375 N   0  0  0  0  0  0  0  0  0  0  0  0
    5.3549   -9.6322   18.3190 C   0  0  0  0  0  0  0  0  0  0  0  0
   10.3704   -4.9638   18.6510 C   0  0  0  0  0  0  0  0  0  0  0  0
    5.5935   -8.6419   17.4234 C   0  0  0  0  0  0  0  0  0  0  0  0
   13.0726   -4.6648   23.3394 O   0  0  0  0  0  0  0  0  0  0  0  0
    8.5955   -6.0705   17.3996 C   0  0  0  0  0  0  0  0  0  0  0  0
    4.6223   -8.3832   16.5030 C   0  0  0  0  0  0  0  0  0  0  0  0
   12.4690   -5.2624   19.9024 C   0  0  0  0  0  0  0  0  0  0  0  0
    3.2548   -9.9919   17.4189 C   0  0  0  0  0  0  0  0  0  0  0  0
   12.4767   -4.7393   22.1790 C   0  0  0  0  0  0  0  0  0  0  0  0
    7.8593   -5.3772   15.3569 N   0  0  0  0  0  0  0  0  0  0  0  0
    7.4412   -6.9038   16.9283 C   0  0  0  0  0  0  0  0  0  0  0  0
  1 21  4  0
  1 23  4  0
  2  5  1  0
  2 13  4  0
  2 16  4  0
  3  6  4  0
  3  7  4  0
  4 13  4  0
  4 19  4  0
  4 24  4  0
  6 23  4  0
  7 16  1  0
  7 21  4  0
  8 18  1  0
  9 20  4  0
  9 22  4  0
 10 17  1  0
 10 25  1  0
 11 16  4  0
 11 19  4  0
 12 15  4  0
 12 22  4  0
 14 24  4  0
 14 25  4  0
 15 17  4  0
 17 20  4  0
 18 23  1  0
 19 25  4  0
M  END
$$$$

 Created by Python create_sdf_string function

 25 28  0  0  0  0  0  0  0  0999 V2000
   13.1533   -5.2399   21.0682 C   0  0  0  0  0  0  0  0  0  0  0  0
   10.4729   -4.0295   17.6135 C   0  0  0  0  0  0  0  0  0  0  0  0
   10.4789   -4.3641   20.9564 C   0  0  0  0  0  0  0  0  0  0  0  0
    8.7421   -5.1412   16.3650 C   0  0  0  0  0  0  0  0  0  0  0  0
   11.4353   -2.9204   17.8044 C   0  0  0  0  0  0  0  0  0  0  0  0
   11.1529   -4.3028   22.1277 C   0  0  0  0  0  0  0  0  0  0  0  0
   11.1290   -4.8502   19.8052 C   0  0  0  0  0  0  0  0  0  0  0  0
   12.4329   -4.2159   24.4224 C   0  0  0  0  0  0  0  0  0  0  0  0
    3.4740   -9.0387   16.5022 C   0  0  0  0  0  0  0  0  0  0  0  0
    6.8384   -7.9290   17.5282 N   0  0  0  0  0  0  0  0  0  0  0  0
    9.4126   -5.9853   18.4899 C   0  0  0  0  0  0  0  0  0  0  0  0
    4.2064  -10.3242   18.3302 C   0  0  0  0  0  0  0  0  0  0  0  0
    9.6599   -4.1551   16.4796 N   0  0  0  0  0  0  0  0  0  0  0  0
    7.0644   -6.4612   15.7375 N   0  0  0  0  0  0  0  0  0  0  0  0
    5.3549   -9.6322   18.3190 C   0  0  0  0  0  0  0  0  0  0  0  0
   10.3704   -4.9638   18.6510 C   0  0  0  0  0  0  0  0  0  0  0  0
    5.5935   -8.6419   17.4234 C   0  0  0  0  0  0  0  0  0  0  0  0
   13.0726   -4.6648   23.3394 O   0  0  0  0  0  0  0  0  0  0  0  0
    8.5955   -6.0705   17.3996 C   0  0  0  0  0  0  0  0  0  0  0  0
    4.6223   -8.3832   16.5030 C   0  0  0  0  0  0  0  0  0  0  0  0
   12.4690   -5.2624   19.9024 C   0  0  0  0  0  0  0  0  0  0  0  0
    3.2548   -9.9919   17.4189 C   0  0  0  0  0  0  0  0  0  0  0  0
   12.4767   -4.7393   22.1790 C   0  0  0  0  0  0  0  0  0  0  0  0
    7.8593   -5.3772   15.3569 N   0  0  0  0  0  0  0  0  0  0  0  0
    7.4412   -6.9038   16.9283 C   0  0  0  0  0  0  0  0  0  0  0  0
  1 21  4  0
  1 23  4  0
  2  5  1  0
  2 13  4  0
  2 16  4  0
  3  6  4  0
  3  7  4  0
  4 13  4  0
  4 19  4  0
  4 24  4  0
  6 23  4  0
  7 16  1  0
  7 21  4  0
  8 18  1  0
  9 20  4  0
  9 22  4  0
 10 17  1  0
 10 25  1  0
 11 16  4  0
 11 19  4  0
 12 15  4  0
 12 22  4  0
 14 24  4  0
 14 25  4  0
 15 17  4  0
 17 20  4  0
 18 23  1  0
 19 25  4  0
M  END
$$$$

 Created by Python create_sdf_string function

 25 28  0  0  0  0  0  0  0  0999 V2000
   13.1533   -5.2399   21.0682 C   0  0  0  0  0  0  0  0  0  0  0  0
   10.4729   -4.0295   17.6135 C   0  0  0  0  0  0  0  0  0  0  0  0
   10.4789   -4.3641   20.9564 C   0  0  0  0  0  0  0  0  0  0  0  0
    8.7421   -5.1412   16.3650 C   0  0  0  0  0  0  0  0  0  0  0  0
   11.4353   -2.9204   17.8044 C   0  0  0  0  0  0  0  0  0  0  0  0
   11.1529   -4.3028   22.1277 C   0  0  0  0  0  0  0  0  0  0  0  0
   11.1290   -4.8502   19.8052 C   0  0  0  0  0  0  0  0  0  0  0  0
   12.4329   -4.2159   24.4224 C   0  0  0  0  0  0  0  0  0  0  0  0
    3.4740   -9.0387   16.5022 C   0  0  0  0  0  0  0  0  0  0  0  0
    6.8384   -7.9290   17.5282 N   0  0  0  0  0  0  0  0  0  0  0  0
    9.4126   -5.9853   18.4899 C   0  0  0  0  0  0  0  0  0  0  0  0
    4.2064  -10.3242   18.3302 C   0  0  0  0  0  0  0  0  0  0  0  0
    9.6599   -4.1551   16.4796 N   0  0  0  0  0  0  0  0  0  0  0  0
    7.0644   -6.4612   15.7375 N   0  0  0  0  0  0  0  0  0  0  0  0
    5.3549   -9.6322   18.3190 C   0  0  0  0  0  0  0  0  0  0  0  0
   10.3704   -4.9638   18.6510 C   0  0  0  0  0  0  0  0  0  0  0  0
    5.5935   -8.6419   17.4234 C   0  0  0  0  0  0  0  0  0  0  0  0
   13.0726   -4.6648   23.3394 O   0  0  0  0  0  0  0  0  0  0  0  0
    8.5955   -6.0705   17.3996 C   0  0  0  0  0  0  0  0  0  0  0  0
    4.6223   -8.3832   16.5030 C   0  0  0  0  0  0  0  0  0  0  0  0
   12.4690   -5.2624   19.9024 C   0  0  0  0  0  0  0  0  0  0  0  0
    3.2548   -9.9919   17.4189 C   0  0  0  0  0  0  0  0  0  0  0  0
   12.4767   -4.7393   22.1790 C   0  0  0  0  0  0  0  0  0  0  0  0
    7.8593   -5.3772   15.3569 N   0  0  0  0  0  0  0  0  0  0  0  0
    7.4412   -6.9038   16.9283 C   0  0  0  0  0  0  0  0  0  0  0  0
  1 21  4  0
  1 23  4  0
  2  5  1  0
  2 13  4  0
  2 16  4  0
  3  6  4  0
  3  7  4  0
  4 13  4  0
  4 19  4  0
  4 24  4  0
  6 23  4  0
  7 16  1  0
  7 21  4  0
  8 18  1  0
  9 20  4  0
  9 22  4  0
 10 17  1  0
 10 25  1  0
 11 16  4  0
 11 19  4  0
 12 15  4  0
 12 22  4  0
 14 24  4  0
 14 25  4  0
 15 17  4  0
 17 20  4  0
 18 23  1  0
 19 25  4  0
M  END
$$$$

 Created by Python create_sdf_string function

 25 28  0  0  0  0  0  0  0  0999 V2000
   13.1533   -5.2399   21.0682 C   0  0  0  0  0  0  0  0  0  0  0  0
   10.4729   -4.0295   17.6135 C   0  0  0  0  0  0  0  0  0  0  0  0
   10.4789   -4.3641   20.9564 C   0  0  0  0  0  0  0  0  0  0  0  0
    8.7421   -5.1412   16.3650 C   0  0  0  0  0  0  0  0  0  0  0  0
   11.4353   -2.9204   17.8044 C   0  0  0  0  0  0  0  0  0  0  0  0
   11.1529   -4.3028   22.1277 C   0  0  0  0  0  0  0  0  0  0  0  0
   11.1290   -4.8502   19.8052 C   0  0  0  0  0  0  0  0  0  0  0  0
   12.4329   -4.2159   24.4224 C   0  0  0  0  0  0  0  0  0  0  0  0
    3.4740   -9.0387   16.5022 C   0  0  0  0  0  0  0  0  0  0  0  0
    6.8384   -7.9290   17.5282 N   0  0  0  0  0  0  0  0  0  0  0  0
    9.4126   -5.9853   18.4899 C   0  0  0  0  0  0  0  0  0  0  0  0
    4.2064  -10.3242   18.3302 C   0  0  0  0  0  0  0  0  0  0  0  0
    9.6599   -4.1551   16.4796 N   0  0  0  0  0  0  0  0  0  0  0  0
    7.0644   -6.4612   15.7375 N   0  0  0  0  0  0  0  0  0  0  0  0
    5.3549   -9.6322   18.3190 C   0  0  0  0  0  0  0  0  0  0  0  0
   10.3704   -4.9638   18.6510 C   0  0  0  0  0  0  0  0  0  0  0  0
    5.5935   -8.6419   17.4234 C   0  0  0  0  0  0  0  0  0  0  0  0
   13.0726   -4.6648   23.3394 O   0  0  0  0  0  0  0  0  0  0  0  0
    8.5955   -6.0705   17.3996 C   0  0  0  0  0  0  0  0  0  0  0  0
    4.6223   -8.3832   16.5030 C   0  0  0  0  0  0  0  0  0  0  0  0
   12.4690   -5.2624   19.9024 C   0  0  0  0  0  0  0  0  0  0  0  0
    3.2548   -9.9919   17.4189 C   0  0  0  0  0  0  0  0  0  0  0  0
   12.4767   -4.7393   22.1790 C   0  0  0  0  0  0  0  0  0  0  0  0
    7.8593   -5.3772   15.3569 N   0  0  0  0  0  0  0  0  0  0  0  0
    7.4412   -6.9038   16.9283 C   0  0  0  0  0  0  0  0  0  0  0  0
  1 21  4  0
  1 23  4  0
  2  5  1  0
  2 13  4  0
  2 16  4  0
  3  6  4  0
  3  7  4  0
  4 13  4  0
  4 19  4  0
  4 24  4  0
  6 23  4  0
  7 16  1  0
  7 21  4  0
  8 18  1  0
  9 20  4  0
  9 22  4  0
 10 17  1  0
 10 25  1  0
 11 16  4  0
 11 19  4  0
 12 15  4  0
 12 22  4  0
 14 24  4  0
 14 25  4  0
 15 17  4  0
 17 20  4  0
 18 23  1  0
 19 25  4  0
M  END
$$$$

 Created by Python create_sdf_string function

 25 28  0  0  0  0  0  0  0  0999 V2000
   13.1533   -5.2399   21.0682 C   0  0  0  0  0  0  0  0  0  0  0  0
   10.4729   -4.0295   17.6135 C   0  0  0  0  0  0  0  0  0  0  0  0
   10.4789   -4.3641   20.9564 C   0  0  0  0  0  0  0  0  0  0  0  0
    8.7421   -5.1412   16.3650 C   0  0  0  0  0  0  0  0  0  0  0  0
   11.4353   -2.9204   17.8044 C   0  0  0  0  0  0  0  0  0  0  0  0
   11.1529   -4.3028   22.1277 C   0  0  0  0  0  0  0  0  0  0  0  0
   11.1290   -4.8502   19.8052 C   0  0  0  0  0  0  0  0  0  0  0  0
   12.4329   -4.2159   24.4224 C   0  0  0  0  0  0  0  0  0  0  0  0
    3.4740   -9.0387   16.5022 C   0  0  0  0  0  0  0  0  0  0  0  0
    6.8384   -7.9290   17.5282 N   0  0  0  0  0  0  0  0  0  0  0  0
    9.4126   -5.9853   18.4899 C   0  0  0  0  0  0  0  0  0  0  0  0
    4.2064  -10.3242   18.3302 C   0  0  0  0  0  0  0  0  0  0  0  0
    9.6599   -4.1551   16.4796 N   0  0  0  0  0  0  0  0  0  0  0  0
    7.0644   -6.4612   15.7375 N   0  0  0  0  0  0  0  0  0  0  0  0
    5.3549   -9.6322   18.3190 C   0  0  0  0  0  0  0  0  0  0  0  0
   10.3704   -4.9638   18.6510 C   0  0  0  0  0  0  0  0  0  0  0  0
    5.5935   -8.6419   17.4234 C   0  0  0  0  0  0  0  0  0  0  0  0
   13.0726   -4.6648   23.3394 O   0  0  0  0  0  0  0  0  0  0  0  0
    8.5955   -6.0705   17.3996 C   0  0  0  0  0  0  0  0  0  0  0  0
    4.6223   -8.3832   16.5030 C   0  0  0  0  0  0  0  0  0  0  0  0
   12.4690   -5.2624   19.9024 C   0  0  0  0  0  0  0  0  0  0  0  0
    3.2548   -9.9919   17.4189 C   0  0  0  0  0  0  0  0  0  0  0  0
   12.4767   -4.7393   22.1790 C   0  0  0  0  0  0  0  0  0  0  0  0
    7.8593   -5.3772   15.3569 N   0  0  0  0  0  0  0  0  0  0  0  0
    7.4412   -6.9038   16.9283 C   0  0  0  0  0  0  0  0  0  0  0  0
  1 21  4  0
  1 23  4  0
  2  5  1  0
  2 13  4  0
  2 16  4  0
  3  6  4  0
  3  7  4  0
  4 13  4  0
  4 19  4  0
  4 24  4  0
  6 23  4  0
  7 16  1  0
  7 21  4  0
  8 18  1  0
  9 20  4  0
  9 22  4  0
 10 17  1  0
 10 25  1  0
 11 16  4  0
 11 19  4  0
 12 15  4  0
 12 22  4  0
 14 24  4  0
 14 25  4  0
 15 17  4  0
 17 20  4  0
 18 23  1  0
 19 25  4  0
M  END
$$$$

 Created by Python create_sdf_string function

 25 28  0  0  0  0  0  0  0  0999 V2000
   13.1533   -5.2399   21.0682 C   0  0  0  0  0  0  0  0  0  0  0  0
   10.4729   -4.0295   17.6135 C   0  0  0  0  0  0  0  0  0  0  0  0
   10.4789   -4.3641   20.9564 C   0  0  0  0  0  0  0  0  0  0  0  0
    8.7421   -5.1412   16.3650 C   0  0  0  0  0  0  0  0  0  0  0  0
   11.4353   -2.9204   17.8044 C   0  0  0  0  0  0  0  0  0  0  0  0
   11.1529   -4.3028   22.1277 C   0  0  0  0  0  0  0  0  0  0  0  0
   11.1290   -4.8502   19.8052 C   0  0  0  0  0  0  0  0  0  0  0  0
   12.4329   -4.2159   24.4224 C   0  0  0  0  0  0  0  0  0  0  0  0
    3.4740   -9.0387   16.5022 C   0  0  0  0  0  0  0  0  0  0  0  0
    6.8384   -7.9290   17.5282 N   0  0  0  0  0  0  0  0  0  0  0  0
    9.4126   -5.9853   18.4899 C   0  0  0  0  0  0  0  0  0  0  0  0
    4.2064  -10.3242   18.3302 C   0  0  0  0  0  0  0  0  0  0  0  0
    9.6599   -4.1551   16.4796 N   0  0  0  0  0  0  0  0  0  0  0  0
    7.0644   -6.4612   15.7375 N   0  0  0  0  0  0  0  0  0  0  0  0
    5.3549   -9.6322   18.3190 C   0  0  0  0  0  0  0  0  0  0  0  0
   10.3704   -4.9638   18.6510 C   0  0  0  0  0  0  0  0  0  0  0  0
    5.5935   -8.6419   17.4234 C   0  0  0  0  0  0  0  0  0  0  0  0
   13.0726   -4.6648   23.3394 O   0  0  0  0  0  0  0  0  0  0  0  0
    8.5955   -6.0705   17.3996 C   0  0  0  0  0  0  0  0  0  0  0  0
    4.6223   -8.3832   16.5030 C   0  0  0  0  0  0  0  0  0  0  0  0
   12.4690   -5.2624   19.9024 C   0  0  0  0  0  0  0  0  0  0  0  0
    3.2548   -9.9919   17.4189 C   0  0  0  0  0  0  0  0  0  0  0  0
   12.4767   -4.7393   22.1790 C   0  0  0  0  0  0  0  0  0  0  0  0
    7.8593   -5.3772   15.3569 N   0  0  0  0  0  0  0  0  0  0  0  0
    7.4412   -6.9038   16.9283 C   0  0  0  0  0  0  0  0  0  0  0  0
  1 21  4  0
  1 23  4  0
  2  5  1  0
  2 13  4  0
  2 16  4  0
  3  6  4  0
  3  7  4  0
  4 13  4  0
  4 19  4  0
  4 24  4  0
  6 23  4  0
  7 16  1  0
  7 21  4  0
  8 18  1  0
  9 20  4  0
  9 22  4  0
 10 17  1  0
 10 25  1  0
 11 16  4  0
 11 19  4  0
 12 15  4  0
 12 22  4  0
 14 24  4  0
 14 25  4  0
 15 17  4  0
 17 20  4  0
 18 23  1  0
 19 25  4  0
M  END
$$$$

 Created by Python create_sdf_string function

 25 28  0  0  0  0  0  0  0  0999 V2000
   13.1533   -5.2399   21.0682 C   0  0  0  0  0  0  0  0  0  0  0  0
   10.4729   -4.0295   17.6135 C   0  0  0  0  0  0  0  0  0  0  0  0
   10.4789   -4.3641   20.9564 C   0  0  0  0  0  0  0  0  0  0  0  0
    8.7421   -5.1412   16.3650 C   0  0  0  0  0  0  0  0  0  0  0  0
   11.4353   -2.9204   17.8044 C   0  0  0  0  0  0  0  0  0  0  0  0
   11.1529   -4.3028   22.1277 C   0  0  0  0  0  0  0  0  0  0  0  0
   11.1290   -4.8502   19.8052 C   0  0  0  0  0  0  0  0  0  0  0  0
   12.4329   -4.2159   24.4224 C   0  0  0  0  0  0  0  0  0  0  0  0
    3.4740   -9.0387   16.5022 C   0  0  0  0  0  0  0  0  0  0  0  0
    6.8384   -7.9290   17.5282 N   0  0  0  0  0  0  0  0  0  0  0  0
    9.4126   -5.9853   18.4899 C   0  0  0  0  0  0  0  0  0  0  0  0
    4.2064  -10.3242   18.3302 C   0  0  0  0  0  0  0  0  0  0  0  0
    9.6599   -4.1551   16.4796 N   0  0  0  0  0  0  0  0  0  0  0  0
    7.0644   -6.4612   15.7375 N   0  0  0  0  0  0  0  0  0  0  0  0
    5.3549   -9.6322   18.3190 C   0  0  0  0  0  0  0  0  0  0  0  0
   10.3704   -4.9638   18.6510 C   0  0  0  0  0  0  0  0  0  0  0  0
    5.5935   -8.6419   17.4234 C   0  0  0  0  0  0  0  0  0  0  0  0
   13.0726   -4.6648   23.3394 O   0  0  0  0  0  0  0  0  0  0  0  0
    8.5955   -6.0705   17.3996 C   0  0  0  0  0  0  0  0  0  0  0  0
    4.6223   -8.3832   16.5030 C   0  0  0  0  0  0  0  0  0  0  0  0
   12.4690   -5.2624   19.9024 C   0  0  0  0  0  0  0  0  0  0  0  0
    3.2548   -9.9919   17.4189 C   0  0  0  0  0  0  0  0  0  0  0  0
   12.4767   -4.7393   22.1790 C   0  0  0  0  0  0  0  0  0  0  0  0
    7.8593   -5.3772   15.3569 N   0  0  0  0  0  0  0  0  0  0  0  0
    7.4412   -6.9038   16.9283 C   0  0  0  0  0  0  0  0  0  0  0  0
  1 21  4  0
  1 23  4  0
  2  5  1  0
  2 13  4  0
  2 16  4  0
  3  6  4  0
  3  7  4  0
  4 13  4  0
  4 19  4  0
  4 24  4  0
  6 23  4  0
  7 16  1  0
  7 21  4  0
  8 18  1  0
  9 20  4  0
  9 22  4  0
 10 17  1  0
 10 25  1  0
 11 16  4  0
 11 19  4  0
 12 15  4  0
 12 22  4  0
 14 24  4  0
 14 25  4  0
 15 17  4  0
 17 20  4  0
 18 23  1  0
 19 25  4  0
M  END
$$$$

 Created by Python create_sdf_string function

 25 28  0  0  0  0  0  0  0  0999 V2000
   13.1533   -5.2399   21.0682 C   0  0  0  0  0  0  0  0  0  0  0  0
   10.4729   -4.0295   17.6135 C   0  0  0  0  0  0  0  0  0  0  0  0
   10.4789   -4.3641   20.9564 C   0  0  0  0  0  0  0  0  0  0  0  0
    8.7421   -5.1412   16.3650 C   0  0  0  0  0  0  0  0  0  0  0  0
   11.4353   -2.9204   17.8044 C   0  0  0  0  0  0  0  0  0  0  0  0
   11.1529   -4.3028   22.1277 C   0  0  0  0  0  0  0  0  0  0  0  0
   11.1290   -4.8502   19.8052 C   0  0  0  0  0  0  0  0  0  0  0  0
   12.4329   -4.2159   24.4224 C   0  0  0  0  0  0  0  0  0  0  0  0
    3.4740   -9.0387   16.5022 C   0  0  0  0  0  0  0  0  0  0  0  0
    6.8384   -7.9290   17.5282 N   0  0  0  0  0  0  0  0  0  0  0  0
    9.4126   -5.9853   18.4899 C   0  0  0  0  0  0  0  0  0  0  0  0
    4.2064  -10.3242   18.3302 C   0  0  0  0  0  0  0  0  0  0  0  0
    9.6599   -4.1551   16.4796 N   0  0  0  0  0  0  0  0  0  0  0  0
    7.0644   -6.4612   15.7375 N   0  0  0  0  0  0  0  0  0  0  0  0
    5.3549   -9.6322   18.3190 C   0  0  0  0  0  0  0  0  0  0  0  0
   10.3704   -4.9638   18.6510 C   0  0  0  0  0  0  0  0  0  0  0  0
    5.5935   -8.6419   17.4234 C   0  0  0  0  0  0  0  0  0  0  0  0
   13.0726   -4.6648   23.3394 O   0  0  0  0  0  0  0  0  0  0  0  0
    8.5955   -6.0705   17.3996 C   0  0  0  0  0  0  0  0  0  0  0  0
    4.6223   -8.3832   16.5030 C   0  0  0  0  0  0  0  0  0  0  0  0
   12.4690   -5.2624   19.9024 C   0  0  0  0  0  0  0  0  0  0  0  0
    3.2548   -9.9919   17.4189 C   0  0  0  0  0  0  0  0  0  0  0  0
   12.4767   -4.7393   22.1790 C   0  0  0  0  0  0  0  0  0  0  0  0
    7.8593   -5.3772   15.3569 N   0  0  0  0  0  0  0  0  0  0  0  0
    7.4412   -6.9038   16.9283 C   0  0  0  0  0  0  0  0  0  0  0  0
  1 21  4  0
  1 23  4  0
  2  5  1  0
  2 13  4  0
  2 16  4  0
  3  6  4  0
  3  7  4  0
  4 13  4  0
  4 19  4  0
  4 24  4  0
  6 23  4  0
  7 16  1  0
  7 21  4  0
  8 18  1  0
  9 20  4  0
  9 22  4  0
 10 17  1  0
 10 25  1  0
 11 16  4  0
 11 19  4  0
 12 15  4  0
 12 22  4  0
 14 24  4  0
 14 25  4  0
 15 17  4  0
 17 20  4  0
 18 23  1  0
 19 25  4  0
M  END
$$$$

 Created by Python create_sdf_string function

 25 28  0  0  0  0  0  0  0  0999 V2000
   13.1533   -5.2399   21.0682 C   0  0  0  0  0  0  0  0  0  0  0  0
   10.4729   -4.0295   17.6135 C   0  0  0  0  0  0  0  0  0  0  0  0
   10.4789   -4.3641   20.9564 C   0  0  0  0  0  0  0  0  0  0  0  0
    8.7421   -5.1412   16.3650 C   0  0  0  0  0  0  0  0  0  0  0  0
   11.4353   -2.9204   17.8044 C   0  0  0  0  0  0  0  0  0  0  0  0
   11.1529   -4.3028   22.1277 C   0  0  0  0  0  0  0  0  0  0  0  0
   11.1290   -4.8502   19.8052 C   0  0  0  0  0  0  0  0  0  0  0  0
   12.4329   -4.2159   24.4224 C   0  0  0  0  0  0  0  0  0  0  0  0
    3.4740   -9.0387   16.5022 C   0  0  0  0  0  0  0  0  0  0  0  0
    6.8384   -7.9290   17.5282 N   0  0  0  0  0  0  0  0  0  0  0  0
    9.4126   -5.9853   18.4899 C   0  0  0  0  0  0  0  0  0  0  0  0
    4.2064  -10.3242   18.3302 C   0  0  0  0  0  0  0  0  0  0  0  0
    9.6599   -4.1551   16.4796 N   0  0  0  0  0  0  0  0  0  0  0  0
    7.0644   -6.4612   15.7375 N   0  0  0  0  0  0  0  0  0  0  0  0
    5.3549   -9.6322   18.3190 C   0  0  0  0  0  0  0  0  0  0  0  0
   10.3704   -4.9638   18.6510 C   0  0  0  0  0  0  0  0  0  0  0  0
    5.5935   -8.6419   17.4234 C   0  0  0  0  0  0  0  0  0  0  0  0
   13.0726   -4.6648   23.3394 O   0  0  0  0  0  0  0  0  0  0  0  0
    8.5955   -6.0705   17.3996 C   0  0  0  0  0  0  0  0  0  0  0  0
    4.6223   -8.3832   16.5030 C   0  0  0  0  0  0  0  0  0  0  0  0
   12.4690   -5.2624   19.9024 C   0  0  0  0  0  0  0  0  0  0  0  0
    3.2548   -9.9919   17.4189 C   0  0  0  0  0  0  0  0  0  0  0  0
   12.4767   -4.7393   22.1790 C   0  0  0  0  0  0  0  0  0  0  0  0
    7.8593   -5.3772   15.3569 N   0  0  0  0  0  0  0  0  0  0  0  0
    7.4412   -6.9038   16.9283 C   0  0  0  0  0  0  0  0  0  0  0  0
  1 21  4  0
  1 23  4  0
  2  5  1  0
  2 13  4  0
  2 16  4  0
  3  6  4  0
  3  7  4  0
  4 13  4  0
  4 19  4  0
  4 24  4  0
  6 23  4  0
  7 16  1  0
  7 21  4  0
  8 18  1  0
  9 20  4  0
  9 22  4  0
 10 17  1  0
 10 25  1  0
 11 16  4  0
 11 19  4  0
 12 15  4  0
 12 22  4  0
 14 24  4  0
 14 25  4  0
 15 17  4  0
 17 20  4  0
 18 23  1  0
 19 25  4  0
M  END
$$$$

 Created by Python create_sdf_string function

 25 28  0  0  0  0  0  0  0  0999 V2000
   13.1533   -5.2399   21.0682 C   0  0  0  0  0  0  0  0  0  0  0  0
   10.4729   -4.0295   17.6135 C   0  0  0  0  0  0  0  0  0  0  0  0
   10.4789   -4.3641   20.9564 C   0  0  0  0  0  0  0  0  0  0  0  0
    8.7421   -5.1412   16.3650 C   0  0  0  0  0  0  0  0  0  0  0  0
   11.4353   -2.9204   17.8044 C   0  0  0  0  0  0  0  0  0  0  0  0
   11.1529   -4.3028   22.1277 C   0  0  0  0  0  0  0  0  0  0  0  0
   11.1290   -4.8502   19.8052 C   0  0  0  0  0  0  0  0  0  0  0  0
   12.4329   -4.2159   24.4224 C   0  0  0  0  0  0  0  0  0  0  0  0
    3.4740   -9.0387   16.5022 C   0  0  0  0  0  0  0  0  0  0  0  0
    6.8384   -7.9290   17.5282 N   0  0  0  0  0  0  0  0  0  0  0  0
    9.4126   -5.9853   18.4899 C   0  0  0  0  0  0  0  0  0  0  0  0
    4.2064  -10.3242   18.3302 C   0  0  0  0  0  0  0  0  0  0  0  0
    9.6599   -4.1551   16.4796 N   0  0  0  0  0  0  0  0  0  0  0  0
    7.0644   -6.4612   15.7375 N   0  0  0  0  0  0  0  0  0  0  0  0
    5.3549   -9.6322   18.3190 C   0  0  0  0  0  0  0  0  0  0  0  0
   10.3704   -4.9638   18.6510 C   0  0  0  0  0  0  0  0  0  0  0  0
    5.5935   -8.6419   17.4234 C   0  0  0  0  0  0  0  0  0  0  0  0
   13.0726   -4.6648   23.3394 O   0  0  0  0  0  0  0  0  0  0  0  0
    8.5955   -6.0705   17.3996 C   0  0  0  0  0  0  0  0  0  0  0  0
    4.6223   -8.3832   16.5030 C   0  0  0  0  0  0  0  0  0  0  0  0
   12.4690   -5.2624   19.9024 C   0  0  0  0  0  0  0  0  0  0  0  0
    3.2548   -9.9919   17.4189 C   0  0  0  0  0  0  0  0  0  0  0  0
   12.4767   -4.7393   22.1790 C   0  0  0  0  0  0  0  0  0  0  0  0
    7.8593   -5.3772   15.3569 N   0  0  0  0  0  0  0  0  0  0  0  0
    7.4412   -6.9038   16.9283 C   0  0  0  0  0  0  0  0  0  0  0  0
  1 21  4  0
  1 23  4  0
  2  5  1  0
  2 13  4  0
  2 16  4  0
  3  6  4  0
  3  7  4  0
  4 13  4  0
  4 19  4  0
  4 24  4  0
  6 23  4  0
  7 16  1  0
  7 21  4  0
  8 18  1  0
  9 20  4  0
  9 22  4  0
 10 17  1  0
 10 25  1  0
 11 16  4  0
 11 19  4  0
 12 15  4  0
 12 22  4  0
 14 24  4  0
 14 25  4  0
 15 17  4  0
 17 20  4  0
 18 23  1  0
 19 25  4  0
M  END
$$$$

 Created by Python create_sdf_string function

 25 28  0  0  0  0  0  0  0  0999 V2000
   13.1533   -5.2399   21.0682 C   0  0  0  0  0  0  0  0  0  0  0  0
   10.4729   -4.0295   17.6135 C   0  0  0  0  0  0  0  0  0  0  0  0
   10.4789   -4.3641   20.9564 C   0  0  0  0  0  0  0  0  0  0  0  0
    8.7421   -5.1412   16.3650 C   0  0  0  0  0  0  0  0  0  0  0  0
   11.4353   -2.9204   17.8044 C   0  0  0  0  0  0  0  0  0  0  0  0
   11.1529   -4.3028   22.1277 C   0  0  0  0  0  0  0  0  0  0  0  0
   11.1290   -4.8502   19.8052 C   0  0  0  0  0  0  0  0  0  0  0  0
   12.4329   -4.2159   24.4224 C   0  0  0  0  0  0  0  0  0  0  0  0
    3.4740   -9.0387   16.5022 C   0  0  0  0  0  0  0  0  0  0  0  0
    6.8384   -7.9290   17.5282 N   0  0  0  0  0  0  0  0  0  0  0  0
    9.4126   -5.9853   18.4899 C   0  0  0  0  0  0  0  0  0  0  0  0
    4.2064  -10.3242   18.3302 C   0  0  0  0  0  0  0  0  0  0  0  0
    9.6599   -4.1551   16.4796 N   0  0  0  0  0  0  0  0  0  0  0  0
    7.0644   -6.4612   15.7375 N   0  0  0  0  0  0  0  0  0  0  0  0
    5.3549   -9.6322   18.3190 C   0  0  0  0  0  0  0  0  0  0  0  0
   10.3704   -4.9638   18.6510 C   0  0  0  0  0  0  0  0  0  0  0  0
    5.5935   -8.6419   17.4234 C   0  0  0  0  0  0  0  0  0  0  0  0
   13.0726   -4.6648   23.3394 O   0  0  0  0  0  0  0  0  0  0  0  0
    8.5955   -6.0705   17.3996 C   0  0  0  0  0  0  0  0  0  0  0  0
    4.6223   -8.3832   16.5030 C   0  0  0  0  0  0  0  0  0  0  0  0
   12.4690   -5.2624   19.9024 C   0  0  0  0  0  0  0  0  0  0  0  0
    3.2548   -9.9919   17.4189 C   0  0  0  0  0  0  0  0  0  0  0  0
   12.4767   -4.7393   22.1790 C   0  0  0  0  0  0  0  0  0  0  0  0
    7.8593   -5.3772   15.3569 N   0  0  0  0  0  0  0  0  0  0  0  0
    7.4412   -6.9038   16.9283 C   0  0  0  0  0  0  0  0  0  0  0  0
  1 21  4  0
  1 23  4  0
  2  5  1  0
  2 13  4  0
  2 16  4  0
  3  6  4  0
  3  7  4  0
  4 13  4  0
  4 19  4  0
  4 24  4  0
  6 23  4  0
  7 16  1  0
  7 21  4  0
  8 18  1  0
  9 20  4  0
  9 22  4  0
 10 17  1  0
 10 25  1  0
 11 16  4  0
 11 19  4  0
 12 15  4  0
 12 22  4  0
 14 24  4  0
 14 25  4  0
 15 17  4  0
 17 20  4  0
 18 23  1  0
 19 25  4  0
M  END
$$$$

 Created by Python create_sdf_string function

 25 28  0  0  0  0  0  0  0  0999 V2000
   13.1533   -5.2399   21.0682 C   0  0  0  0  0  0  0  0  0  0  0  0
   10.4729   -4.0295   17.6135 C   0  0  0  0  0  0  0  0  0  0  0  0
   10.4789   -4.3641   20.9564 C   0  0  0  0  0  0  0  0  0  0  0  0
    8.7421   -5.1412   16.3650 C   0  0  0  0  0  0  0  0  0  0  0  0
   11.4353   -2.9204   17.8044 C   0  0  0  0  0  0  0  0  0  0  0  0
   11.1529   -4.3028   22.1277 C   0  0  0  0  0  0  0  0  0  0  0  0
   11.1290   -4.8502   19.8052 C   0  0  0  0  0  0  0  0  0  0  0  0
   12.4329   -4.2159   24.4224 C   0  0  0  0  0  0  0  0  0  0  0  0
    3.4740   -9.0387   16.5022 C   0  0  0  0  0  0  0  0  0  0  0  0
    6.8384   -7.9290   17.5282 N   0  0  0  0  0  0  0  0  0  0  0  0
    9.4126   -5.9853   18.4899 C   0  0  0  0  0  0  0  0  0  0  0  0
    4.2064  -10.3242   18.3302 C   0  0  0  0  0  0  0  0  0  0  0  0
    9.6599   -4.1551   16.4796 N   0  0  0  0  0  0  0  0  0  0  0  0
    7.0644   -6.4612   15.7375 N   0  0  0  0  0  0  0  0  0  0  0  0
    5.3549   -9.6322   18.3190 C   0  0  0  0  0  0  0  0  0  0  0  0
   10.3704   -4.9638   18.6510 C   0  0  0  0  0  0  0  0  0  0  0  0
    5.5935   -8.6419   17.4234 C   0  0  0  0  0  0  0  0  0  0  0  0
   13.0726   -4.6648   23.3394 O   0  0  0  0  0  0  0  0  0  0  0  0
    8.5955   -6.0705   17.3996 C   0  0  0  0  0  0  0  0  0  0  0  0
    4.6223   -8.3832   16.5030 C   0  0  0  0  0  0  0  0  0  0  0  0
   12.4690   -5.2624   19.9024 C   0  0  0  0  0  0  0  0  0  0  0  0
    3.2548   -9.9919   17.4189 C   0  0  0  0  0  0  0  0  0  0  0  0
   12.4767   -4.7393   22.1790 C   0  0  0  0  0  0  0  0  0  0  0  0
    7.8593   -5.3772   15.3569 N   0  0  0  0  0  0  0  0  0  0  0  0
    7.4412   -6.9038   16.9283 C   0  0  0  0  0  0  0  0  0  0  0  0
  1 21  4  0
  1 23  4  0
  2  5  1  0
  2 13  4  0
  2 16  4  0
  3  6  4  0
  3  7  4  0
  4 13  4  0
  4 19  4  0
  4 24  4  0
  6 23  4  0
  7 16  1  0
  7 21  4  0
  8 18  1  0
  9 20  4  0
  9 22  4  0
 10 17  1  0
 10 25  1  0
 11 16  4  0
 11 19  4  0
 12 15  4  0
 12 22  4  0
 14 24  4  0
 14 25  4  0
 15 17  4  0
 17 20  4  0
 18 23  1  0
 19 25  4  0
M  END
$$$$

 Created by Python create_sdf_string function

 25 28  0  0  0  0  0  0  0  0999 V2000
   13.1533   -5.2399   21.0682 C   0  0  0  0  0  0  0  0  0  0  0  0
   10.4729   -4.0295   17.6135 C   0  0  0  0  0  0  0  0  0  0  0  0
   10.4789   -4.3641   20.9564 C   0  0  0  0  0  0  0  0  0  0  0  0
    8.7421   -5.1412   16.3650 C   0  0  0  0  0  0  0  0  0  0  0  0
   11.4353   -2.9204   17.8044 C   0  0  0  0  0  0  0  0  0  0  0  0
   11.1529   -4.3028   22.1277 C   0  0  0  0  0  0  0  0  0  0  0  0
   11.1290   -4.8502   19.8052 C   0  0  0  0  0  0  0  0  0  0  0  0
   12.4329   -4.2159   24.4224 C   0  0  0  0  0  0  0  0  0  0  0  0
    3.4740   -9.0387   16.5022 C   0  0  0  0  0  0  0  0  0  0  0  0
    6.8384   -7.9290   17.5282 N   0  0  0  0  0  0  0  0  0  0  0  0
    9.4126   -5.9853   18.4899 C   0  0  0  0  0  0  0  0  0  0  0  0
    4.2064  -10.3242   18.3302 C   0  0  0  0  0  0  0  0  0  0  0  0
    9.6599   -4.1551   16.4796 N   0  0  0  0  0  0  0  0  0  0  0  0
    7.0644   -6.4612   15.7375 N   0  0  0  0  0  0  0  0  0  0  0  0
    5.3549   -9.6322   18.3190 C   0  0  0  0  0  0  0  0  0  0  0  0
   10.3704   -4.9638   18.6510 C   0  0  0  0  0  0  0  0  0  0  0  0
    5.5935   -8.6419   17.4234 C   0  0  0  0  0  0  0  0  0  0  0  0
   13.0726   -4.6648   23.3394 O   0  0  0  0  0  0  0  0  0  0  0  0
    8.5955   -6.0705   17.3996 C   0  0  0  0  0  0  0  0  0  0  0  0
    4.6223   -8.3832   16.5030 C   0  0  0  0  0  0  0  0  0  0  0  0
   12.4690   -5.2624   19.9024 C   0  0  0  0  0  0  0  0  0  0  0  0
    3.2548   -9.9919   17.4189 C   0  0  0  0  0  0  0  0  0  0  0  0
   12.4767   -4.7393   22.1790 C   0  0  0  0  0  0  0  0  0  0  0  0
    7.8593   -5.3772   15.3569 N   0  0  0  0  0  0  0  0  0  0  0  0
    7.4412   -6.9038   16.9283 C   0  0  0  0  0  0  0  0  0  0  0  0
  1 21  4  0
  1 23  4  0
  2  5  1  0
  2 13  4  0
  2 16  4  0
  3  6  4  0
  3  7  4  0
  4 13  4  0
  4 19  4  0
  4 24  4  0
  6 23  4  0
  7 16  1  0
  7 21  4  0
  8 18  1  0
  9 20  4  0
  9 22  4  0
 10 17  1  0
 10 25  1  0
 11 16  4  0
 11 19  4  0
 12 15  4  0
 12 22  4  0
 14 24  4  0
 14 25  4  0
 15 17  4  0
 17 20  4  0
 18 23  1  0
 19 25  4  0
M  END
$$$$

 Created by Python create_sdf_string function

 25 28  0  0  0  0  0  0  0  0999 V2000
   13.1533   -5.2399   21.0682 C   0  0  0  0  0  0  0  0  0  0  0  0
   10.4729   -4.0295   17.6135 C   0  0  0  0  0  0  0  0  0  0  0  0
   10.4789   -4.3641   20.9564 C   0  0  0  0  0  0  0  0  0  0  0  0
    8.7421   -5.1412   16.3650 C   0  0  0  0  0  0  0  0  0  0  0  0
   11.4353   -2.9204   17.8044 C   0  0  0  0  0  0  0  0  0  0  0  0
   11.1529   -4.3028   22.1277 C   0  0  0  0  0  0  0  0  0  0  0  0
   11.1290   -4.8502   19.8052 C   0  0  0  0  0  0  0  0  0  0  0  0
   12.4329   -4.2159   24.4224 C   0  0  0  0  0  0  0  0  0  0  0  0
    3.4740   -9.0387   16.5022 C   0  0  0  0  0  0  0  0  0  0  0  0
    6.8384   -7.9290   17.5282 N   0  0  0  0  0  0  0  0  0  0  0  0
    9.4126   -5.9853   18.4899 C   0  0  0  0  0  0  0  0  0  0  0  0
    4.2064  -10.3242   18.3302 C   0  0  0  0  0  0  0  0  0  0  0  0
    9.6599   -4.1551   16.4796 N   0  0  0  0  0  0  0  0  0  0  0  0
    7.0644   -6.4612   15.7375 N   0  0  0  0  0  0  0  0  0  0  0  0
    5.3549   -9.6322   18.3190 C   0  0  0  0  0  0  0  0  0  0  0  0
   10.3704   -4.9638   18.6510 C   0  0  0  0  0  0  0  0  0  0  0  0
    5.5935   -8.6419   17.4234 C   0  0  0  0  0  0  0  0  0  0  0  0
   13.0726   -4.6648   23.3394 O   0  0  0  0  0  0  0  0  0  0  0  0
    8.5955   -6.0705   17.3996 C   0  0  0  0  0  0  0  0  0  0  0  0
    4.6223   -8.3832   16.5030 C   0  0  0  0  0  0  0  0  0  0  0  0
   12.4690   -5.2624   19.9024 C   0  0  0  0  0  0  0  0  0  0  0  0
    3.2548   -9.9919   17.4189 C   0  0  0  0  0  0  0  0  0  0  0  0
   12.4767   -4.7393   22.1790 C   0  0  0  0  0  0  0  0  0  0  0  0
    7.8593   -5.3772   15.3569 N   0  0  0  0  0  0  0  0  0  0  0  0
    7.4412   -6.9038   16.9283 C   0  0  0  0  0  0  0  0  0  0  0  0
  1 21  4  0
  1 23  4  0
  2  5  1  0
  2 13  4  0
  2 16  4  0
  3  6  4  0
  3  7  4  0
  4 13  4  0
  4 19  4  0
  4 24  4  0
  6 23  4  0
  7 16  1  0
  7 21  4  0
  8 18  1  0
  9 20  4  0
  9 22  4  0
 10 17  1  0
 10 25  1  0
 11 16  4  0
 11 19  4  0
 12 15  4  0
 12 22  4  0
 14 24  4  0
 14 25  4  0
 15 17  4  0
 17 20  4  0
 18 23  1  0
 19 25  4  0
M  END
$$$$

 Created by Python create_sdf_string function

 25 28  0  0  0  0  0  0  0  0999 V2000
   13.1533   -5.2399   21.0682 C   0  0  0  0  0  0  0  0  0  0  0  0
   10.4729   -4.0295   17.6135 C   0  0  0  0  0  0  0  0  0  0  0  0
   10.4789   -4.3641   20.9564 C   0  0  0  0  0  0  0  0  0  0  0  0
    8.7421   -5.1412   16.3650 C   0  0  0  0  0  0  0  0  0  0  0  0
   11.4353   -2.9204   17.8044 C   0  0  0  0  0  0  0  0  0  0  0  0
   11.1529   -4.3028   22.1277 C   0  0  0  0  0  0  0  0  0  0  0  0
   11.1290   -4.8502   19.8052 C   0  0  0  0  0  0  0  0  0  0  0  0
   12.4329   -4.2159   24.4224 C   0  0  0  0  0  0  0  0  0  0  0  0
    3.4740   -9.0387   16.5022 C   0  0  0  0  0  0  0  0  0  0  0  0
    6.8384   -7.9290   17.5282 N   0  0  0  0  0  0  0  0  0  0  0  0
    9.4126   -5.9853   18.4899 C   0  0  0  0  0  0  0  0  0  0  0  0
    4.2064  -10.3242   18.3302 C   0  0  0  0  0  0  0  0  0  0  0  0
    9.6599   -4.1551   16.4796 N   0  0  0  0  0  0  0  0  0  0  0  0
    7.0644   -6.4612   15.7375 N   0  0  0  0  0  0  0  0  0  0  0  0
    5.3549   -9.6322   18.3190 C   0  0  0  0  0  0  0  0  0  0  0  0
   10.3704   -4.9638   18.6510 C   0  0  0  0  0  0  0  0  0  0  0  0
    5.5935   -8.6419   17.4234 C   0  0  0  0  0  0  0  0  0  0  0  0
   13.0726   -4.6648   23.3394 O   0  0  0  0  0  0  0  0  0  0  0  0
    8.5955   -6.0705   17.3996 C   0  0  0  0  0  0  0  0  0  0  0  0
    4.6223   -8.3832   16.5030 C   0  0  0  0  0  0  0  0  0  0  0  0
   12.4690   -5.2624   19.9024 C   0  0  0  0  0  0  0  0  0  0  0  0
    3.2548   -9.9919   17.4189 C   0  0  0  0  0  0  0  0  0  0  0  0
   12.4767   -4.7393   22.1790 C   0  0  0  0  0  0  0  0  0  0  0  0
    7.8593   -5.3772   15.3569 N   0  0  0  0  0  0  0  0  0  0  0  0
    7.4412   -6.9038   16.9283 C   0  0  0  0  0  0  0  0  0  0  0  0
  1 21  4  0
  1 23  4  0
  2  5  1  0
  2 13  4  0
  2 16  4  0
  3  6  4  0
  3  7  4  0
  4 13  4  0
  4 19  4  0
  4 24  4  0
  6 23  4  0
  7 16  1  0
  7 21  4  0
  8 18  1  0
  9 20  4  0
  9 22  4  0
 10 17  1  0
 10 25  1  0
 11 16  4  0
 11 19  4  0
 12 15  4  0
 12 22  4  0
 14 24  4  0
 14 25  4  0
 15 17  4  0
 17 20  4  0
 18 23  1  0
 19 25  4  0
M  END
$$$$

 Created by Python create_sdf_string function

 25 28  0  0  0  0  0  0  0  0999 V2000
   13.1533   -5.2399   21.0682 C   0  0  0  0  0  0  0  0  0  0  0  0
   10.4729   -4.0295   17.6135 C   0  0  0  0  0  0  0  0  0  0  0  0
   10.4789   -4.3641   20.9564 C   0  0  0  0  0  0  0  0  0  0  0  0
    8.7421   -5.1412   16.3650 C   0  0  0  0  0  0  0  0  0  0  0  0
   11.4353   -2.9204   17.8044 C   0  0  0  0  0  0  0  0  0  0  0  0
   11.1529   -4.3028   22.1277 C   0  0  0  0  0  0  0  0  0  0  0  0
   11.1290   -4.8502   19.8052 C   0  0  0  0  0  0  0  0  0  0  0  0
   12.4329   -4.2159   24.4224 C   0  0  0  0  0  0  0  0  0  0  0  0
    3.4740   -9.0387   16.5022 C   0  0  0  0  0  0  0  0  0  0  0  0
    6.8384   -7.9290   17.5282 N   0  0  0  0  0  0  0  0  0  0  0  0
    9.4126   -5.9853   18.4899 C   0  0  0  0  0  0  0  0  0  0  0  0
    4.2064  -10.3242   18.3302 C   0  0  0  0  0  0  0  0  0  0  0  0
    9.6599   -4.1551   16.4796 N   0  0  0  0  0  0  0  0  0  0  0  0
    7.0644   -6.4612   15.7375 N   0  0  0  0  0  0  0  0  0  0  0  0
    5.3549   -9.6322   18.3190 C   0  0  0  0  0  0  0  0  0  0  0  0
   10.3704   -4.9638   18.6510 C   0  0  0  0  0  0  0  0  0  0  0  0
    5.5935   -8.6419   17.4234 C   0  0  0  0  0  0  0  0  0  0  0  0
   13.0726   -4.6648   23.3394 O   0  0  0  0  0  0  0  0  0  0  0  0
    8.5955   -6.0705   17.3996 C   0  0  0  0  0  0  0  0  0  0  0  0
    4.6223   -8.3832   16.5030 C   0  0  0  0  0  0  0  0  0  0  0  0
   12.4690   -5.2624   19.9024 C   0  0  0  0  0  0  0  0  0  0  0  0
    3.2548   -9.9919   17.4189 C   0  0  0  0  0  0  0  0  0  0  0  0
   12.4767   -4.7393   22.1790 C   0  0  0  0  0  0  0  0  0  0  0  0
    7.8593   -5.3772   15.3569 N   0  0  0  0  0  0  0  0  0  0  0  0
    7.4412   -6.9038   16.9283 C   0  0  0  0  0  0  0  0  0  0  0  0
  1 21  4  0
  1 23  4  0
  2  5  1  0
  2 13  4  0
  2 16  4  0
  3  6  4  0
  3  7  4  0
  4 13  4  0
  4 19  4  0
  4 24  4  0
  6 23  4  0
  7 16  1  0
  7 21  4  0
  8 18  1  0
  9 20  4  0
  9 22  4  0
 10 17  1  0
 10 25  1  0
 11 16  4  0
 11 19  4  0
 12 15  4  0
 12 22  4  0
 14 24  4  0
 14 25  4  0
 15 17  4  0
 17 20  4  0
 18 23  1  0
 19 25  4  0
M  END
$$$$

 Created by Python create_sdf_string function

 25 28  0  0  0  0  0  0  0  0999 V2000
   13.1533   -5.2399   21.0682 C   0  0  0  0  0  0  0  0  0  0  0  0
   10.4729   -4.0295   17.6135 C   0  0  0  0  0  0  0  0  0  0  0  0
   10.4789   -4.3641   20.9564 C   0  0  0  0  0  0  0  0  0  0  0  0
    8.7421   -5.1412   16.3650 C   0  0  0  0  0  0  0  0  0  0  0  0
   11.4353   -2.9204   17.8044 C   0  0  0  0  0  0  0  0  0  0  0  0
   11.1529   -4.3028   22.1277 C   0  0  0  0  0  0  0  0  0  0  0  0
   11.1290   -4.8502   19.8052 C   0  0  0  0  0  0  0  0  0  0  0  0
   12.4329   -4.2159   24.4224 C   0  0  0  0  0  0  0  0  0  0  0  0
    3.4740   -9.0387   16.5022 C   0  0  0  0  0  0  0  0  0  0  0  0
    6.8384   -7.9290   17.5282 N   0  0  0  0  0  0  0  0  0  0  0  0
    9.4126   -5.9853   18.4899 C   0  0  0  0  0  0  0  0  0  0  0  0
    4.2064  -10.3242   18.3302 C   0  0  0  0  0  0  0  0  0  0  0  0
    9.6599   -4.1551   16.4796 N   0  0  0  0  0  0  0  0  0  0  0  0
    7.0644   -6.4612   15.7375 N   0  0  0  0  0  0  0  0  0  0  0  0
    5.3549   -9.6322   18.3190 C   0  0  0  0  0  0  0  0  0  0  0  0
   10.3704   -4.9638   18.6510 C   0  0  0  0  0  0  0  0  0  0  0  0
    5.5935   -8.6419   17.4234 C   0  0  0  0  0  0  0  0  0  0  0  0
   13.0726   -4.6648   23.3394 O   0  0  0  0  0  0  0  0  0  0  0  0
    8.5955   -6.0705   17.3996 C   0  0  0  0  0  0  0  0  0  0  0  0
    4.6223   -8.3832   16.5030 C   0  0  0  0  0  0  0  0  0  0  0  0
   12.4690   -5.2624   19.9024 C   0  0  0  0  0  0  0  0  0  0  0  0
    3.2548   -9.9919   17.4189 C   0  0  0  0  0  0  0  0  0  0  0  0
   12.4767   -4.7393   22.1790 C   0  0  0  0  0  0  0  0  0  0  0  0
    7.8593   -5.3772   15.3569 N   0  0  0  0  0  0  0  0  0  0  0  0
    7.4412   -6.9038   16.9283 C   0  0  0  0  0  0  0  0  0  0  0  0
  1 21  4  0
  1 23  4  0
  2  5  1  0
  2 13  4  0
  2 16  4  0
  3  6  4  0
  3  7  4  0
  4 13  4  0
  4 19  4  0
  4 24  4  0
  6 23  4  0
  7 16  1  0
  7 21  4  0
  8 18  1  0
  9 20  4  0
  9 22  4  0
 10 17  1  0
 10 25  1  0
 11 16  4  0
 11 19  4  0
 12 15  4  0
 12 22  4  0
 14 24  4  0
 14 25  4  0
 15 17  4  0
 17 20  4  0
 18 23  1  0
 19 25  4  0
M  END
$$$$

 Created by Python create_sdf_string function

 25 28  0  0  0  0  0  0  0  0999 V2000
   13.1533   -5.2399   21.0682 C   0  0  0  0  0  0  0  0  0  0  0  0
   10.4729   -4.0295   17.6135 C   0  0  0  0  0  0  0  0  0  0  0  0
   10.4789   -4.3641   20.9564 C   0  0  0  0  0  0  0  0  0  0  0  0
    8.7421   -5.1412   16.3650 C   0  0  0  0  0  0  0  0  0  0  0  0
   11.4353   -2.9204   17.8044 C   0  0  0  0  0  0  0  0  0  0  0  0
   11.1529   -4.3028   22.1277 C   0  0  0  0  0  0  0  0  0  0  0  0
   11.1290   -4.8502   19.8052 C   0  0  0  0  0  0  0  0  0  0  0  0
   12.4329   -4.2159   24.4224 C   0  0  0  0  0  0  0  0  0  0  0  0
    3.4740   -9.0387   16.5022 C   0  0  0  0  0  0  0  0  0  0  0  0
    6.8384   -7.9290   17.5282 N   0  0  0  0  0  0  0  0  0  0  0  0
    9.4126   -5.9853   18.4899 C   0  0  0  0  0  0  0  0  0  0  0  0
    4.2064  -10.3242   18.3302 C   0  0  0  0  0  0  0  0  0  0  0  0
    9.6599   -4.1551   16.4796 N   0  0  0  0  0  0  0  0  0  0  0  0
    7.0644   -6.4612   15.7375 N   0  0  0  0  0  0  0  0  0  0  0  0
    5.3549   -9.6322   18.3190 C   0  0  0  0  0  0  0  0  0  0  0  0
   10.3704   -4.9638   18.6510 C   0  0  0  0  0  0  0  0  0  0  0  0
    5.5935   -8.6419   17.4234 C   0  0  0  0  0  0  0  0  0  0  0  0
   13.0726   -4.6648   23.3394 O   0  0  0  0  0  0  0  0  0  0  0  0
    8.5955   -6.0705   17.3996 C   0  0  0  0  0  0  0  0  0  0  0  0
    4.6223   -8.3832   16.5030 C   0  0  0  0  0  0  0  0  0  0  0  0
   12.4690   -5.2624   19.9024 C   0  0  0  0  0  0  0  0  0  0  0  0
    3.2548   -9.9919   17.4189 C   0  0  0  0  0  0  0  0  0  0  0  0
   12.4767   -4.7393   22.1790 C   0  0  0  0  0  0  0  0  0  0  0  0
    7.8593   -5.3772   15.3569 N   0  0  0  0  0  0  0  0  0  0  0  0
    7.4412   -6.9038   16.9283 C   0  0  0  0  0  0  0  0  0  0  0  0
  1 21  4  0
  1 23  4  0
  2  5  1  0
  2 13  4  0
  2 16  4  0
  3  6  4  0
  3  7  4  0
  4 13  4  0
  4 19  4  0
  4 24  4  0
  6 23  4  0
  7 16  1  0
  7 21  4  0
  8 18  1  0
  9 20  4  0
  9 22  4  0
 10 17  1  0
 10 25  1  0
 11 16  4  0
 11 19  4  0
 12 15  4  0
 12 22  4  0
 14 24  4  0
 14 25  4  0
 15 17  4  0
 17 20  4  0
 18 23  1  0
 19 25  4  0
M  END
$$$$

 Created by Python create_sdf_string function

 25 28  0  0  0  0  0  0  0  0999 V2000
   13.1533   -5.2399   21.0682 C   0  0  0  0  0  0  0  0  0  0  0  0
   10.4729   -4.0295   17.6135 C   0  0  0  0  0  0  0  0  0  0  0  0
   10.4789   -4.3641   20.9564 C   0  0  0  0  0  0  0  0  0  0  0  0
    8.7421   -5.1412   16.3650 C   0  0  0  0  0  0  0  0  0  0  0  0
   11.4353   -2.9204   17.8044 C   0  0  0  0  0  0  0  0  0  0  0  0
   11.1529   -4.3028   22.1277 C   0  0  0  0  0  0  0  0  0  0  0  0
   11.1290   -4.8502   19.8052 C   0  0  0  0  0  0  0  0  0  0  0  0
   12.4329   -4.2159   24.4224 C   0  0  0  0  0  0  0  0  0  0  0  0
    3.4740   -9.0387   16.5022 C   0  0  0  0  0  0  0  0  0  0  0  0
    6.8384   -7.9290   17.5282 N   0  0  0  0  0  0  0  0  0  0  0  0
    9.4126   -5.9853   18.4899 C   0  0  0  0  0  0  0  0  0  0  0  0
    4.2064  -10.3242   18.3302 C   0  0  0  0  0  0  0  0  0  0  0  0
    9.6599   -4.1551   16.4796 N   0  0  0  0  0  0  0  0  0  0  0  0
    7.0644   -6.4612   15.7375 N   0  0  0  0  0  0  0  0  0  0  0  0
    5.3549   -9.6322   18.3190 C   0  0  0  0  0  0  0  0  0  0  0  0
   10.3704   -4.9638   18.6510 C   0  0  0  0  0  0  0  0  0  0  0  0
    5.5935   -8.6419   17.4234 C   0  0  0  0  0  0  0  0  0  0  0  0
   13.0726   -4.6648   23.3394 O   0  0  0  0  0  0  0  0  0  0  0  0
    8.5955   -6.0705   17.3996 C   0  0  0  0  0  0  0  0  0  0  0  0
    4.6223   -8.3832   16.5030 C   0  0  0  0  0  0  0  0  0  0  0  0
   12.4690   -5.2624   19.9024 C   0  0  0  0  0  0  0  0  0  0  0  0
    3.2548   -9.9919   17.4189 C   0  0  0  0  0  0  0  0  0  0  0  0
   12.4767   -4.7393   22.1790 C   0  0  0  0  0  0  0  0  0  0  0  0
    7.8593   -5.3772   15.3569 N   0  0  0  0  0  0  0  0  0  0  0  0
    7.4412   -6.9038   16.9283 C   0  0  0  0  0  0  0  0  0  0  0  0
  1 21  4  0
  1 23  4  0
  2  5  1  0
  2 13  4  0
  2 16  4  0
  3  6  4  0
  3  7  4  0
  4 13  4  0
  4 19  4  0
  4 24  4  0
  6 23  4  0
  7 16  1  0
  7 21  4  0
  8 18  1  0
  9 20  4  0
  9 22  4  0
 10 17  1  0
 10 25  1  0
 11 16  4  0
 11 19  4  0
 12 15  4  0
 12 22  4  0
 14 24  4  0
 14 25  4  0
 15 17  4  0
 17 20  4  0
 18 23  1  0
 19 25  4  0
M  END
$$$$

 Created by Python create_sdf_string function

 25 28  0  0  0  0  0  0  0  0999 V2000
   13.1533   -5.2399   21.0682 C   0  0  0  0  0  0  0  0  0  0  0  0
   10.4729   -4.0295   17.6135 C   0  0  0  0  0  0  0  0  0  0  0  0
   10.4789   -4.3641   20.9564 C   0  0  0  0  0  0  0  0  0  0  0  0
    8.7421   -5.1412   16.3650 C   0  0  0  0  0  0  0  0  0  0  0  0
   11.4353   -2.9204   17.8044 C   0  0  0  0  0  0  0  0  0  0  0  0
   11.1529   -4.3028   22.1277 C   0  0  0  0  0  0  0  0  0  0  0  0
   11.1290   -4.8502   19.8052 C   0  0  0  0  0  0  0  0  0  0  0  0
   12.4329   -4.2159   24.4224 C   0  0  0  0  0  0  0  0  0  0  0  0
    3.4740   -9.0387   16.5022 C   0  0  0  0  0  0  0  0  0  0  0  0
    6.8384   -7.9290   17.5282 N   0  0  0  0  0  0  0  0  0  0  0  0
    9.4126   -5.9853   18.4899 C   0  0  0  0  0  0  0  0  0  0  0  0
    4.2064  -10.3242   18.3302 C   0  0  0  0  0  0  0  0  0  0  0  0
    9.6599   -4.1551   16.4796 N   0  0  0  0  0  0  0  0  0  0  0  0
    7.0644   -6.4612   15.7375 N   0  0  0  0  0  0  0  0  0  0  0  0
    5.3549   -9.6322   18.3190 C   0  0  0  0  0  0  0  0  0  0  0  0
   10.3704   -4.9638   18.6510 C   0  0  0  0  0  0  0  0  0  0  0  0
    5.5935   -8.6419   17.4234 C   0  0  0  0  0  0  0  0  0  0  0  0
   13.0726   -4.6648   23.3394 O   0  0  0  0  0  0  0  0  0  0  0  0
    8.5955   -6.0705   17.3996 C   0  0  0  0  0  0  0  0  0  0  0  0
    4.6223   -8.3832   16.5030 C   0  0  0  0  0  0  0  0  0  0  0  0
   12.4690   -5.2624   19.9024 C   0  0  0  0  0  0  0  0  0  0  0  0
    3.2548   -9.9919   17.4189 C   0  0  0  0  0  0  0  0  0  0  0  0
   12.4767   -4.7393   22.1790 C   0  0  0  0  0  0  0  0  0  0  0  0
    7.8593   -5.3772   15.3569 N   0  0  0  0  0  0  0  0  0  0  0  0
    7.4412   -6.9038   16.9283 C   0  0  0  0  0  0  0  0  0  0  0  0
  1 21  4  0
  1 23  4  0
  2  5  1  0
  2 13  4  0
  2 16  4  0
  3  6  4  0
  3  7  4  0
  4 13  4  0
  4 19  4  0
  4 24  4  0
  6 23  4  0
  7 16  1  0
  7 21  4  0
  8 18  1  0
  9 20  4  0
  9 22  4  0
 10 17  1  0
 10 25  1  0
 11 16  4  0
 11 19  4  0
 12 15  4  0
 12 22  4  0
 14 24  4  0
 14 25  4  0
 15 17  4  0
 17 20  4  0
 18 23  1  0
 19 25  4  0
M  END
$$$$

 Created by Python create_sdf_string function

 25 28  0  0  0  0  0  0  0  0999 V2000
   13.1533   -5.2399   21.0682 C   0  0  0  0  0  0  0  0  0  0  0  0
   10.4729   -4.0295   17.6135 C   0  0  0  0  0  0  0  0  0  0  0  0
   10.4789   -4.3641   20.9564 C   0  0  0  0  0  0  0  0  0  0  0  0
    8.7421   -5.1412   16.3650 C   0  0  0  0  0  0  0  0  0  0  0  0
   11.4353   -2.9204   17.8044 C   0  0  0  0  0  0  0  0  0  0  0  0
   11.1529   -4.3028   22.1277 C   0  0  0  0  0  0  0  0  0  0  0  0
   11.1290   -4.8502   19.8052 C   0  0  0  0  0  0  0  0  0  0  0  0
   12.4329   -4.2159   24.4224 C   0  0  0  0  0  0  0  0  0  0  0  0
    3.4740   -9.0387   16.5022 C   0  0  0  0  0  0  0  0  0  0  0  0
    6.8384   -7.9290   17.5282 N   0  0  0  0  0  0  0  0  0  0  0  0
    9.4126   -5.9853   18.4899 C   0  0  0  0  0  0  0  0  0  0  0  0
    4.2064  -10.3242   18.3302 C   0  0  0  0  0  0  0  0  0  0  0  0
    9.6599   -4.1551   16.4796 N   0  0  0  0  0  0  0  0  0  0  0  0
    7.0644   -6.4612   15.7375 N   0  0  0  0  0  0  0  0  0  0  0  0
    5.3549   -9.6322   18.3190 C   0  0  0  0  0  0  0  0  0  0  0  0
   10.3704   -4.9638   18.6510 C   0  0  0  0  0  0  0  0  0  0  0  0
    5.5935   -8.6419   17.4234 C   0  0  0  0  0  0  0  0  0  0  0  0
   13.0726   -4.6648   23.3394 O   0  0  0  0  0  0  0  0  0  0  0  0
    8.5955   -6.0705   17.3996 C   0  0  0  0  0  0  0  0  0  0  0  0
    4.6223   -8.3832   16.5030 C   0  0  0  0  0  0  0  0  0  0  0  0
   12.4690   -5.2624   19.9024 C   0  0  0  0  0  0  0  0  0  0  0  0
    3.2548   -9.9919   17.4189 C   0  0  0  0  0  0  0  0  0  0  0  0
   12.4767   -4.7393   22.1790 C   0  0  0  0  0  0  0  0  0  0  0  0
    7.8593   -5.3772   15.3569 N   0  0  0  0  0  0  0  0  0  0  0  0
    7.4412   -6.9038   16.9283 C   0  0  0  0  0  0  0  0  0  0  0  0
  1 21  4  0
  1 23  4  0
  2  5  1  0
  2 13  4  0
  2 16  4  0
  3  6  4  0
  3  7  4  0
  4 13  4  0
  4 19  4  0
  4 24  4  0
  6 23  4  0
  7 16  1  0
  7 21  4  0
  8 18  1  0
  9 20  4  0
  9 22  4  0
 10 17  1  0
 10 25  1  0
 11 16  4  0
 11 19  4  0
 12 15  4  0
 12 22  4  0
 14 24  4  0
 14 25  4  0
 15 17  4  0
 17 20  4  0
 18 23  1  0
 19 25  4  0
M  END
$$$$

 Created by Python create_sdf_string function

 25 28  0  0  0  0  0  0  0  0999 V2000
   13.1533   -5.2399   21.0682 C   0  0  0  0  0  0  0  0  0  0  0  0
   10.4729   -4.0295   17.6135 C   0  0  0  0  0  0  0  0  0  0  0  0
   10.4789   -4.3641   20.9564 C   0  0  0  0  0  0  0  0  0  0  0  0
    8.7421   -5.1412   16.3650 C   0  0  0  0  0  0  0  0  0  0  0  0
   11.4353   -2.9204   17.8044 C   0  0  0  0  0  0  0  0  0  0  0  0
   11.1529   -4.3028   22.1277 C   0  0  0  0  0  0  0  0  0  0  0  0
   11.1290   -4.8502   19.8052 C   0  0  0  0  0  0  0  0  0  0  0  0
   12.4329   -4.2159   24.4224 C   0  0  0  0  0  0  0  0  0  0  0  0
    3.4740   -9.0387   16.5022 C   0  0  0  0  0  0  0  0  0  0  0  0
    6.8384   -7.9290   17.5282 N   0  0  0  0  0  0  0  0  0  0  0  0
    9.4126   -5.9853   18.4899 C   0  0  0  0  0  0  0  0  0  0  0  0
    4.2064  -10.3242   18.3302 C   0  0  0  0  0  0  0  0  0  0  0  0
    9.6599   -4.1551   16.4796 N   0  0  0  0  0  0  0  0  0  0  0  0
    7.0644   -6.4612   15.7375 N   0  0  0  0  0  0  0  0  0  0  0  0
    5.3549   -9.6322   18.3190 C   0  0  0  0  0  0  0  0  0  0  0  0
   10.3704   -4.9638   18.6510 C   0  0  0  0  0  0  0  0  0  0  0  0
    5.5935   -8.6419   17.4234 C   0  0  0  0  0  0  0  0  0  0  0  0
   13.0726   -4.6648   23.3394 O   0  0  0  0  0  0  0  0  0  0  0  0
    8.5955   -6.0705   17.3996 C   0  0  0  0  0  0  0  0  0  0  0  0
    4.6223   -8.3832   16.5030 C   0  0  0  0  0  0  0  0  0  0  0  0
   12.4690   -5.2624   19.9024 C   0  0  0  0  0  0  0  0  0  0  0  0
    3.2548   -9.9919   17.4189 C   0  0  0  0  0  0  0  0  0  0  0  0
   12.4767   -4.7393   22.1790 C   0  0  0  0  0  0  0  0  0  0  0  0
    7.8593   -5.3772   15.3569 N   0  0  0  0  0  0  0  0  0  0  0  0
    7.4412   -6.9038   16.9283 C   0  0  0  0  0  0  0  0  0  0  0  0
  1 21  4  0
  1 23  4  0
  2  5  1  0
  2 13  4  0
  2 16  4  0
  3  6  4  0
  3  7  4  0
  4 13  4  0
  4 19  4  0
  4 24  4  0
  6 23  4  0
  7 16  1  0
  7 21  4  0
  8 18  1  0
  9 20  4  0
  9 22  4  0
 10 17  1  0
 10 25  1  0
 11 16  4  0
 11 19  4  0
 12 15  4  0
 12 22  4  0
 14 24  4  0
 14 25  4  0
 15 17  4  0
 17 20  4  0
 18 23  1  0
 19 25  4  0
M  END
$$$$

 Created by Python create_sdf_string function

 25 28  0  0  0  0  0  0  0  0999 V2000
   13.1533   -5.2399   21.0682 C   0  0  0  0  0  0  0  0  0  0  0  0
   10.4729   -4.0295   17.6135 C   0  0  0  0  0  0  0  0  0  0  0  0
   10.4789   -4.3641   20.9564 C   0  0  0  0  0  0  0  0  0  0  0  0
    8.7421   -5.1412   16.3650 C   0  0  0  0  0  0  0  0  0  0  0  0
   11.4353   -2.9204   17.8044 C   0  0  0  0  0  0  0  0  0  0  0  0
   11.1529   -4.3028   22.1277 C   0  0  0  0  0  0  0  0  0  0  0  0
   11.1290   -4.8502   19.8052 C   0  0  0  0  0  0  0  0  0  0  0  0
   12.4329   -4.2159   24.4224 C   0  0  0  0  0  0  0  0  0  0  0  0
    3.4740   -9.0387   16.5022 C   0  0  0  0  0  0  0  0  0  0  0  0
    6.8384   -7.9290   17.5282 N   0  0  0  0  0  0  0  0  0  0  0  0
    9.4126   -5.9853   18.4899 C   0  0  0  0  0  0  0  0  0  0  0  0
    4.2064  -10.3242   18.3302 C   0  0  0  0  0  0  0  0  0  0  0  0
    9.6599   -4.1551   16.4796 N   0  0  0  0  0  0  0  0  0  0  0  0
    7.0644   -6.4612   15.7375 N   0  0  0  0  0  0  0  0  0  0  0  0
    5.3549   -9.6322   18.3190 C   0  0  0  0  0  0  0  0  0  0  0  0
   10.3704   -4.9638   18.6510 C   0  0  0  0  0  0  0  0  0  0  0  0
    5.5935   -8.6419   17.4234 C   0  0  0  0  0  0  0  0  0  0  0  0
   13.0726   -4.6648   23.3394 O   0  0  0  0  0  0  0  0  0  0  0  0
    8.5955   -6.0705   17.3996 C   0  0  0  0  0  0  0  0  0  0  0  0
    4.6223   -8.3832   16.5030 C   0  0  0  0  0  0  0  0  0  0  0  0
   12.4690   -5.2624   19.9024 C   0  0  0  0  0  0  0  0  0  0  0  0
    3.2548   -9.9919   17.4189 C   0  0  0  0  0  0  0  0  0  0  0  0
   12.4767   -4.7393   22.1790 C   0  0  0  0  0  0  0  0  0  0  0  0
    7.8593   -5.3772   15.3569 N   0  0  0  0  0  0  0  0  0  0  0  0
    7.4412   -6.9038   16.9283 C   0  0  0  0  0  0  0  0  0  0  0  0
  1 21  4  0
  1 23  4  0
  2  5  1  0
  2 13  4  0
  2 16  4  0
  3  6  4  0
  3  7  4  0
  4 13  4  0
  4 19  4  0
  4 24  4  0
  6 23  4  0
  7 16  1  0
  7 21  4  0
  8 18  1  0
  9 20  4  0
  9 22  4  0
 10 17  1  0
 10 25  1  0
 11 16  4  0
 11 19  4  0
 12 15  4  0
 12 22  4  0
 14 24  4  0
 14 25  4  0
 15 17  4  0
 17 20  4  0
 18 23  1  0
 19 25  4  0
M  END
$$$$

 Created by Python create_sdf_string function

 25 28  0  0  0  0  0  0  0  0999 V2000
   13.1533   -5.2399   21.0682 C   0  0  0  0  0  0  0  0  0  0  0  0
   10.4729   -4.0295   17.6135 C   0  0  0  0  0  0  0  0  0  0  0  0
   10.4789   -4.3641   20.9564 C   0  0  0  0  0  0  0  0  0  0  0  0
    8.7421   -5.1412   16.3650 C   0  0  0  0  0  0  0  0  0  0  0  0
   11.4353   -2.9204   17.8044 C   0  0  0  0  0  0  0  0  0  0  0  0
   11.1529   -4.3028   22.1277 C   0  0  0  0  0  0  0  0  0  0  0  0
   11.1290   -4.8502   19.8052 C   0  0  0  0  0  0  0  0  0  0  0  0
   12.4329   -4.2159   24.4224 C   0  0  0  0  0  0  0  0  0  0  0  0
    3.4740   -9.0387   16.5022 C   0  0  0  0  0  0  0  0  0  0  0  0
    6.8384   -7.9290   17.5282 N   0  0  0  0  0  0  0  0  0  0  0  0
    9.4126   -5.9853   18.4899 C   0  0  0  0  0  0  0  0  0  0  0  0
    4.2064  -10.3242   18.3302 C   0  0  0  0  0  0  0  0  0  0  0  0
    9.6599   -4.1551   16.4796 N   0  0  0  0  0  0  0  0  0  0  0  0
    7.0644   -6.4612   15.7375 N   0  0  0  0  0  0  0  0  0  0  0  0
    5.3549   -9.6322   18.3190 C   0  0  0  0  0  0  0  0  0  0  0  0
   10.3704   -4.9638   18.6510 C   0  0  0  0  0  0  0  0  0  0  0  0
    5.5935   -8.6419   17.4234 C   0  0  0  0  0  0  0  0  0  0  0  0
   13.0726   -4.6648   23.3394 O   0  0  0  0  0  0  0  0  0  0  0  0
    8.5955   -6.0705   17.3996 C   0  0  0  0  0  0  0  0  0  0  0  0
    4.6223   -8.3832   16.5030 C   0  0  0  0  0  0  0  0  0  0  0  0
   12.4690   -5.2624   19.9024 C   0  0  0  0  0  0  0  0  0  0  0  0
    3.2548   -9.9919   17.4189 C   0  0  0  0  0  0  0  0  0  0  0  0
   12.4767   -4.7393   22.1790 C   0  0  0  0  0  0  0  0  0  0  0  0
    7.8593   -5.3772   15.3569 N   0  0  0  0  0  0  0  0  0  0  0  0
    7.4412   -6.9038   16.9283 C   0  0  0  0  0  0  0  0  0  0  0  0
  1 21  4  0
  1 23  4  0
  2  5  1  0
  2 13  4  0
  2 16  4  0
  3  6  4  0
  3  7  4  0
  4 13  4  0
  4 19  4  0
  4 24  4  0
  6 23  4  0
  7 16  1  0
  7 21  4  0
  8 18  1  0
  9 20  4  0
  9 22  4  0
 10 17  1  0
 10 25  1  0
 11 16  4  0
 11 19  4  0
 12 15  4  0
 12 22  4  0
 14 24  4  0
 14 25  4  0
 15 17  4  0
 17 20  4  0
 18 23  1  0
 19 25  4  0
M  END
$$$$

 Created by Python create_sdf_string function

 25 28  0  0  0  0  0  0  0  0999 V2000
   13.1533   -5.2399   21.0682 C   0  0  0  0  0  0  0  0  0  0  0  0
   10.4729   -4.0295   17.6135 C   0  0  0  0  0  0  0  0  0  0  0  0
   10.4789   -4.3641   20.9564 C   0  0  0  0  0  0  0  0  0  0  0  0
    8.7421   -5.1412   16.3650 C   0  0  0  0  0  0  0  0  0  0  0  0
   11.4353   -2.9204   17.8044 C   0  0  0  0  0  0  0  0  0  0  0  0
   11.1529   -4.3028   22.1277 C   0  0  0  0  0  0  0  0  0  0  0  0
   11.1290   -4.8502   19.8052 C   0  0  0  0  0  0  0  0  0  0  0  0
   12.4329   -4.2159   24.4224 C   0  0  0  0  0  0  0  0  0  0  0  0
    3.4740   -9.0387   16.5022 C   0  0  0  0  0  0  0  0  0  0  0  0
    6.8384   -7.9290   17.5282 N   0  0  0  0  0  0  0  0  0  0  0  0
    9.4126   -5.9853   18.4899 C   0  0  0  0  0  0  0  0  0  0  0  0
    4.2064  -10.3242   18.3302 C   0  0  0  0  0  0  0  0  0  0  0  0
    9.6599   -4.1551   16.4796 N   0  0  0  0  0  0  0  0  0  0  0  0
    7.0644   -6.4612   15.7375 N   0  0  0  0  0  0  0  0  0  0  0  0
    5.3549   -9.6322   18.3190 C   0  0  0  0  0  0  0  0  0  0  0  0
   10.3704   -4.9638   18.6510 C   0  0  0  0  0  0  0  0  0  0  0  0
    5.5935   -8.6419   17.4234 C   0  0  0  0  0  0  0  0  0  0  0  0
   13.0726   -4.6648   23.3394 O   0  0  0  0  0  0  0  0  0  0  0  0
    8.5955   -6.0705   17.3996 C   0  0  0  0  0  0  0  0  0  0  0  0
    4.6223   -8.3832   16.5030 C   0  0  0  0  0  0  0  0  0  0  0  0
   12.4690   -5.2624   19.9024 C   0  0  0  0  0  0  0  0  0  0  0  0
    3.2548   -9.9919   17.4189 C   0  0  0  0  0  0  0  0  0  0  0  0
   12.4767   -4.7393   22.1790 C   0  0  0  0  0  0  0  0  0  0  0  0
    7.8593   -5.3772   15.3569 N   0  0  0  0  0  0  0  0  0  0  0  0
    7.4412   -6.9038   16.9283 C   0  0  0  0  0  0  0  0  0  0  0  0
  1 21  4  0
  1 23  4  0
  2  5  1  0
  2 13  4  0
  2 16  4  0
  3  6  4  0
  3  7  4  0
  4 13  4  0
  4 19  4  0
  4 24  4  0
  6 23  4  0
  7 16  1  0
  7 21  4  0
  8 18  1  0
  9 20  4  0
  9 22  4  0
 10 17  1  0
 10 25  1  0
 11 16  4  0
 11 19  4  0
 12 15  4  0
 12 22  4  0
 14 24  4  0
 14 25  4  0
 15 17  4  0
 17 20  4  0
 18 23  1  0
 19 25  4  0
M  END
$$$$

 Created by Python create_sdf_string function

 25 28  0  0  0  0  0  0  0  0999 V2000
   13.1533   -5.2399   21.0682 C   0  0  0  0  0  0  0  0  0  0  0  0
   10.4729   -4.0295   17.6135 C   0  0  0  0  0  0  0  0  0  0  0  0
   10.4789   -4.3641   20.9564 C   0  0  0  0  0  0  0  0  0  0  0  0
    8.7421   -5.1412   16.3650 C   0  0  0  0  0  0  0  0  0  0  0  0
   11.4353   -2.9204   17.8044 C   0  0  0  0  0  0  0  0  0  0  0  0
   11.1529   -4.3028   22.1277 C   0  0  0  0  0  0  0  0  0  0  0  0
   11.1290   -4.8502   19.8052 C   0  0  0  0  0  0  0  0  0  0  0  0
   12.4329   -4.2159   24.4224 C   0  0  0  0  0  0  0  0  0  0  0  0
    3.4740   -9.0387   16.5022 C   0  0  0  0  0  0  0  0  0  0  0  0
    6.8384   -7.9290   17.5282 N   0  0  0  0  0  0  0  0  0  0  0  0
    9.4126   -5.9853   18.4899 C   0  0  0  0  0  0  0  0  0  0  0  0
    4.2064  -10.3242   18.3302 C   0  0  0  0  0  0  0  0  0  0  0  0
    9.6599   -4.1551   16.4796 N   0  0  0  0  0  0  0  0  0  0  0  0
    7.0644   -6.4612   15.7375 N   0  0  0  0  0  0  0  0  0  0  0  0
    5.3549   -9.6322   18.3190 C   0  0  0  0  0  0  0  0  0  0  0  0
   10.3704   -4.9638   18.6510 C   0  0  0  0  0  0  0  0  0  0  0  0
    5.5935   -8.6419   17.4234 C   0  0  0  0  0  0  0  0  0  0  0  0
   13.0726   -4.6648   23.3394 O   0  0  0  0  0  0  0  0  0  0  0  0
    8.5955   -6.0705   17.3996 C   0  0  0  0  0  0  0  0  0  0  0  0
    4.6223   -8.3832   16.5030 C   0  0  0  0  0  0  0  0  0  0  0  0
   12.4690   -5.2624   19.9024 C   0  0  0  0  0  0  0  0  0  0  0  0
    3.2548   -9.9919   17.4189 C   0  0  0  0  0  0  0  0  0  0  0  0
   12.4767   -4.7393   22.1790 C   0  0  0  0  0  0  0  0  0  0  0  0
    7.8593   -5.3772   15.3569 N   0  0  0  0  0  0  0  0  0  0  0  0
    7.4412   -6.9038   16.9283 C   0  0  0  0  0  0  0  0  0  0  0  0
  1 21  4  0
  1 23  4  0
  2  5  1  0
  2 13  4  0
  2 16  4  0
  3  6  4  0
  3  7  4  0
  4 13  4  0
  4 19  4  0
  4 24  4  0
  6 23  4  0
  7 16  1  0
  7 21  4  0
  8 18  1  0
  9 20  4  0
  9 22  4  0
 10 17  1  0
 10 25  1  0
 11 16  4  0
 11 19  4  0
 12 15  4  0
 12 22  4  0
 14 24  4  0
 14 25  4  0
 15 17  4  0
 17 20  4  0
 18 23  1  0
 19 25  4  0
M  END
$$$$

 Created by Python create_sdf_string function

 25 28  0  0  0  0  0  0  0  0999 V2000
   13.1533   -5.2399   21.0682 C   0  0  0  0  0  0  0  0  0  0  0  0
   10.4729   -4.0295   17.6135 C   0  0  0  0  0  0  0  0  0  0  0  0
   10.4789   -4.3641   20.9564 C   0  0  0  0  0  0  0  0  0  0  0  0
    8.7421   -5.1412   16.3650 C   0  0  0  0  0  0  0  0  0  0  0  0
   11.4353   -2.9204   17.8044 C   0  0  0  0  0  0  0  0  0  0  0  0
   11.1529   -4.3028   22.1277 C   0  0  0  0  0  0  0  0  0  0  0  0
   11.1290   -4.8502   19.8052 C   0  0  0  0  0  0  0  0  0  0  0  0
   12.4329   -4.2159   24.4224 C   0  0  0  0  0  0  0  0  0  0  0  0
    3.4740   -9.0387   16.5022 C   0  0  0  0  0  0  0  0  0  0  0  0
    6.8384   -7.9290   17.5282 N   0  0  0  0  0  0  0  0  0  0  0  0
    9.4126   -5.9853   18.4899 C   0  0  0  0  0  0  0  0  0  0  0  0
    4.2064  -10.3242   18.3302 C   0  0  0  0  0  0  0  0  0  0  0  0
    9.6599   -4.1551   16.4796 N   0  0  0  0  0  0  0  0  0  0  0  0
    7.0644   -6.4612   15.7375 N   0  0  0  0  0  0  0  0  0  0  0  0
    5.3549   -9.6322   18.3190 C   0  0  0  0  0  0  0  0  0  0  0  0
   10.3704   -4.9638   18.6510 C   0  0  0  0  0  0  0  0  0  0  0  0
    5.5935   -8.6419   17.4234 C   0  0  0  0  0  0  0  0  0  0  0  0
   13.0726   -4.6648   23.3394 O   0  0  0  0  0  0  0  0  0  0  0  0
    8.5955   -6.0705   17.3996 C   0  0  0  0  0  0  0  0  0  0  0  0
    4.6223   -8.3832   16.5030 C   0  0  0  0  0  0  0  0  0  0  0  0
   12.4690   -5.2624   19.9024 C   0  0  0  0  0  0  0  0  0  0  0  0
    3.2548   -9.9919   17.4189 C   0  0  0  0  0  0  0  0  0  0  0  0
   12.4767   -4.7393   22.1790 C   0  0  0  0  0  0  0  0  0  0  0  0
    7.8593   -5.3772   15.3569 N   0  0  0  0  0  0  0  0  0  0  0  0
    7.4412   -6.9038   16.9283 C   0  0  0  0  0  0  0  0  0  0  0  0
  1 21  4  0
  1 23  4  0
  2  5  1  0
  2 13  4  0
  2 16  4  0
  3  6  4  0
  3  7  4  0
  4 13  4  0
  4 19  4  0
  4 24  4  0
  6 23  4  0
  7 16  1  0
  7 21  4  0
  8 18  1  0
  9 20  4  0
  9 22  4  0
 10 17  1  0
 10 25  1  0
 11 16  4  0
 11 19  4  0
 12 15  4  0
 12 22  4  0
 14 24  4  0
 14 25  4  0
 15 17  4  0
 17 20  4  0
 18 23  1  0
 19 25  4  0
M  END
$$$$

 Created by Python create_sdf_string function

 25 28  0  0  0  0  0  0  0  0999 V2000
   13.1533   -5.2399   21.0682 C   0  0  0  0  0  0  0  0  0  0  0  0
   10.4729   -4.0295   17.6135 C   0  0  0  0  0  0  0  0  0  0  0  0
   10.4789   -4.3641   20.9564 C   0  0  0  0  0  0  0  0  0  0  0  0
    8.7421   -5.1412   16.3650 C   0  0  0  0  0  0  0  0  0  0  0  0
   11.4353   -2.9204   17.8044 C   0  0  0  0  0  0  0  0  0  0  0  0
   11.1529   -4.3028   22.1277 C   0  0  0  0  0  0  0  0  0  0  0  0
   11.1290   -4.8502   19.8052 C   0  0  0  0  0  0  0  0  0  0  0  0
   12.4329   -4.2159   24.4224 C   0  0  0  0  0  0  0  0  0  0  0  0
    3.4740   -9.0387   16.5022 C   0  0  0  0  0  0  0  0  0  0  0  0
    6.8384   -7.9290   17.5282 N   0  0  0  0  0  0  0  0  0  0  0  0
    9.4126   -5.9853   18.4899 C   0  0  0  0  0  0  0  0  0  0  0  0
    4.2064  -10.3242   18.3302 C   0  0  0  0  0  0  0  0  0  0  0  0
    9.6599   -4.1551   16.4796 N   0  0  0  0  0  0  0  0  0  0  0  0
    7.0644   -6.4612   15.7375 N   0  0  0  0  0  0  0  0  0  0  0  0
    5.3549   -9.6322   18.3190 C   0  0  0  0  0  0  0  0  0  0  0  0
   10.3704   -4.9638   18.6510 C   0  0  0  0  0  0  0  0  0  0  0  0
    5.5935   -8.6419   17.4234 C   0  0  0  0  0  0  0  0  0  0  0  0
   13.0726   -4.6648   23.3394 O   0  0  0  0  0  0  0  0  0  0  0  0
    8.5955   -6.0705   17.3996 C   0  0  0  0  0  0  0  0  0  0  0  0
    4.6223   -8.3832   16.5030 C   0  0  0  0  0  0  0  0  0  0  0  0
   12.4690   -5.2624   19.9024 C   0  0  0  0  0  0  0  0  0  0  0  0
    3.2548   -9.9919   17.4189 C   0  0  0  0  0  0  0  0  0  0  0  0
   12.4767   -4.7393   22.1790 C   0  0  0  0  0  0  0  0  0  0  0  0
    7.8593   -5.3772   15.3569 N   0  0  0  0  0  0  0  0  0  0  0  0
    7.4412   -6.9038   16.9283 C   0  0  0  0  0  0  0  0  0  0  0  0
  1 21  4  0
  1 23  4  0
  2  5  1  0
  2 13  4  0
  2 16  4  0
  3  6  4  0
  3  7  4  0
  4 13  4  0
  4 19  4  0
  4 24  4  0
  6 23  4  0
  7 16  1  0
  7 21  4  0
  8 18  1  0
  9 20  4  0
  9 22  4  0
 10 17  1  0
 10 25  1  0
 11 16  4  0
 11 19  4  0
 12 15  4  0
 12 22  4  0
 14 24  4  0
 14 25  4  0
 15 17  4  0
 17 20  4  0
 18 23  1  0
 19 25  4  0
M  END
$$$$

 Created by Python create_sdf_string function

 25 28  0  0  0  0  0  0  0  0999 V2000
   13.1533   -5.2399   21.0682 C   0  0  0  0  0  0  0  0  0  0  0  0
   10.4729   -4.0295   17.6135 C   0  0  0  0  0  0  0  0  0  0  0  0
   10.4789   -4.3641   20.9564 C   0  0  0  0  0  0  0  0  0  0  0  0
    8.7421   -5.1412   16.3650 C   0  0  0  0  0  0  0  0  0  0  0  0
   11.4353   -2.9204   17.8044 C   0  0  0  0  0  0  0  0  0  0  0  0
   11.1529   -4.3028   22.1277 C   0  0  0  0  0  0  0  0  0  0  0  0
   11.1290   -4.8502   19.8052 C   0  0  0  0  0  0  0  0  0  0  0  0
   12.4329   -4.2159   24.4224 C   0  0  0  0  0  0  0  0  0  0  0  0
    3.4740   -9.0387   16.5022 C   0  0  0  0  0  0  0  0  0  0  0  0
    6.8384   -7.9290   17.5282 N   0  0  0  0  0  0  0  0  0  0  0  0
    9.4126   -5.9853   18.4899 C   0  0  0  0  0  0  0  0  0  0  0  0
    4.2064  -10.3242   18.3302 C   0  0  0  0  0  0  0  0  0  0  0  0
    9.6599   -4.1551   16.4796 N   0  0  0  0  0  0  0  0  0  0  0  0
    7.0644   -6.4612   15.7375 N   0  0  0  0  0  0  0  0  0  0  0  0
    5.3549   -9.6322   18.3190 C   0  0  0  0  0  0  0  0  0  0  0  0
   10.3704   -4.9638   18.6510 C   0  0  0  0  0  0  0  0  0  0  0  0
    5.5935   -8.6419   17.4234 C   0  0  0  0  0  0  0  0  0  0  0  0
   13.0726   -4.6648   23.3394 O   0  0  0  0  0  0  0  0  0  0  0  0
    8.5955   -6.0705   17.3996 C   0  0  0  0  0  0  0  0  0  0  0  0
    4.6223   -8.3832   16.5030 C   0  0  0  0  0  0  0  0  0  0  0  0
   12.4690   -5.2624   19.9024 C   0  0  0  0  0  0  0  0  0  0  0  0
    3.2548   -9.9919   17.4189 C   0  0  0  0  0  0  0  0  0  0  0  0
   12.4767   -4.7393   22.1790 C   0  0  0  0  0  0  0  0  0  0  0  0
    7.8593   -5.3772   15.3569 N   0  0  0  0  0  0  0  0  0  0  0  0
    7.4412   -6.9038   16.9283 C   0  0  0  0  0  0  0  0  0  0  0  0
  1 21  4  0
  1 23  4  0
  2  5  1  0
  2 13  4  0
  2 16  4  0
  3  6  4  0
  3  7  4  0
  4 13  4  0
  4 19  4  0
  4 24  4  0
  6 23  4  0
  7 16  1  0
  7 21  4  0
  8 18  1  0
  9 20  4  0
  9 22  4  0
 10 17  1  0
 10 25  1  0
 11 16  4  0
 11 19  4  0
 12 15  4  0
 12 22  4  0
 14 24  4  0
 14 25  4  0
 15 17  4  0
 17 20  4  0
 18 23  1  0
 19 25  4  0
M  END
$$$$

 Created by Python create_sdf_string function

 25 28  0  0  0  0  0  0  0  0999 V2000
   13.1533   -5.2399   21.0682 C   0  0  0  0  0  0  0  0  0  0  0  0
   10.4729   -4.0295   17.6135 C   0  0  0  0  0  0  0  0  0  0  0  0
   10.4789   -4.3641   20.9564 C   0  0  0  0  0  0  0  0  0  0  0  0
    8.7421   -5.1412   16.3650 C   0  0  0  0  0  0  0  0  0  0  0  0
   11.4353   -2.9204   17.8044 C   0  0  0  0  0  0  0  0  0  0  0  0
   11.1529   -4.3028   22.1277 C   0  0  0  0  0  0  0  0  0  0  0  0
   11.1290   -4.8502   19.8052 C   0  0  0  0  0  0  0  0  0  0  0  0
   12.4329   -4.2159   24.4224 C   0  0  0  0  0  0  0  0  0  0  0  0
    3.4740   -9.0387   16.5022 C   0  0  0  0  0  0  0  0  0  0  0  0
    6.8384   -7.9290   17.5282 N   0  0  0  0  0  0  0  0  0  0  0  0
    9.4126   -5.9853   18.4899 C   0  0  0  0  0  0  0  0  0  0  0  0
    4.2064  -10.3242   18.3302 C   0  0  0  0  0  0  0  0  0  0  0  0
    9.6599   -4.1551   16.4796 N   0  0  0  0  0  0  0  0  0  0  0  0
    7.0644   -6.4612   15.7375 N   0  0  0  0  0  0  0  0  0  0  0  0
    5.3549   -9.6322   18.3190 C   0  0  0  0  0  0  0  0  0  0  0  0
   10.3704   -4.9638   18.6510 C   0  0  0  0  0  0  0  0  0  0  0  0
    5.5935   -8.6419   17.4234 C   0  0  0  0  0  0  0  0  0  0  0  0
   13.0726   -4.6648   23.3394 O   0  0  0  0  0  0  0  0  0  0  0  0
    8.5955   -6.0705   17.3996 C   0  0  0  0  0  0  0  0  0  0  0  0
    4.6223   -8.3832   16.5030 C   0  0  0  0  0  0  0  0  0  0  0  0
   12.4690   -5.2624   19.9024 C   0  0  0  0  0  0  0  0  0  0  0  0
    3.2548   -9.9919   17.4189 C   0  0  0  0  0  0  0  0  0  0  0  0
   12.4767   -4.7393   22.1790 C   0  0  0  0  0  0  0  0  0  0  0  0
    7.8593   -5.3772   15.3569 N   0  0  0  0  0  0  0  0  0  0  0  0
    7.4412   -6.9038   16.9283 C   0  0  0  0  0  0  0  0  0  0  0  0
  1 21  4  0
  1 23  4  0
  2  5  1  0
  2 13  4  0
  2 16  4  0
  3  6  4  0
  3  7  4  0
  4 13  4  0
  4 19  4  0
  4 24  4  0
  6 23  4  0
  7 16  1  0
  7 21  4  0
  8 18  1  0
  9 20  4  0
  9 22  4  0
 10 17  1  0
 10 25  1  0
 11 16  4  0
 11 19  4  0
 12 15  4  0
 12 22  4  0
 14 24  4  0
 14 25  4  0
 15 17  4  0
 17 20  4  0
 18 23  1  0
 19 25  4  0
M  END
$$$$

 Created by Python create_sdf_string function

 25 28  0  0  0  0  0  0  0  0999 V2000
   13.1533   -5.2399   21.0682 C   0  0  0  0  0  0  0  0  0  0  0  0
   10.4729   -4.0295   17.6135 C   0  0  0  0  0  0  0  0  0  0  0  0
   10.4789   -4.3641   20.9564 C   0  0  0  0  0  0  0  0  0  0  0  0
    8.7421   -5.1412   16.3650 C   0  0  0  0  0  0  0  0  0  0  0  0
   11.4353   -2.9204   17.8044 C   0  0  0  0  0  0  0  0  0  0  0  0
   11.1529   -4.3028   22.1277 C   0  0  0  0  0  0  0  0  0  0  0  0
   11.1290   -4.8502   19.8052 C   0  0  0  0  0  0  0  0  0  0  0  0
   12.4329   -4.2159   24.4224 C   0  0  0  0  0  0  0  0  0  0  0  0
    3.4740   -9.0387   16.5022 C   0  0  0  0  0  0  0  0  0  0  0  0
    6.8384   -7.9290   17.5282 N   0  0  0  0  0  0  0  0  0  0  0  0
    9.4126   -5.9853   18.4899 C   0  0  0  0  0  0  0  0  0  0  0  0
    4.2064  -10.3242   18.3302 C   0  0  0  0  0  0  0  0  0  0  0  0
    9.6599   -4.1551   16.4796 N   0  0  0  0  0  0  0  0  0  0  0  0
    7.0644   -6.4612   15.7375 N   0  0  0  0  0  0  0  0  0  0  0  0
    5.3549   -9.6322   18.3190 C   0  0  0  0  0  0  0  0  0  0  0  0
   10.3704   -4.9638   18.6510 C   0  0  0  0  0  0  0  0  0  0  0  0
    5.5935   -8.6419   17.4234 C   0  0  0  0  0  0  0  0  0  0  0  0
   13.0726   -4.6648   23.3394 O   0  0  0  0  0  0  0  0  0  0  0  0
    8.5955   -6.0705   17.3996 C   0  0  0  0  0  0  0  0  0  0  0  0
    4.6223   -8.3832   16.5030 C   0  0  0  0  0  0  0  0  0  0  0  0
   12.4690   -5.2624   19.9024 C   0  0  0  0  0  0  0  0  0  0  0  0
    3.2548   -9.9919   17.4189 C   0  0  0  0  0  0  0  0  0  0  0  0
   12.4767   -4.7393   22.1790 C   0  0  0  0  0  0  0  0  0  0  0  0
    7.8593   -5.3772   15.3569 N   0  0  0  0  0  0  0  0  0  0  0  0
    7.4412   -6.9038   16.9283 C   0  0  0  0  0  0  0  0  0  0  0  0
  1 21  4  0
  1 23  4  0
  2  5  1  0
  2 13  4  0
  2 16  4  0
  3  6  4  0
  3  7  4  0
  4 13  4  0
  4 19  4  0
  4 24  4  0
  6 23  4  0
  7 16  1  0
  7 21  4  0
  8 18  1  0
  9 20  4  0
  9 22  4  0
 10 17  1  0
 10 25  1  0
 11 16  4  0
 11 19  4  0
 12 15  4  0
 12 22  4  0
 14 24  4  0
 14 25  4  0
 15 17  4  0
 17 20  4  0
 18 23  1  0
 19 25  4  0
M  END
$$$$

 Created by Python create_sdf_string function

 25 28  0  0  0  0  0  0  0  0999 V2000
   13.1533   -5.2399   21.0682 C   0  0  0  0  0  0  0  0  0  0  0  0
   10.4729   -4.0295   17.6135 C   0  0  0  0  0  0  0  0  0  0  0  0
   10.4789   -4.3641   20.9564 C   0  0  0  0  0  0  0  0  0  0  0  0
    8.7421   -5.1412   16.3650 C   0  0  0  0  0  0  0  0  0  0  0  0
   11.4353   -2.9204   17.8044 C   0  0  0  0  0  0  0  0  0  0  0  0
   11.1529   -4.3028   22.1277 C   0  0  0  0  0  0  0  0  0  0  0  0
   11.1290   -4.8502   19.8052 C   0  0  0  0  0  0  0  0  0  0  0  0
   12.4329   -4.2159   24.4224 C   0  0  0  0  0  0  0  0  0  0  0  0
    3.4740   -9.0387   16.5022 C   0  0  0  0  0  0  0  0  0  0  0  0
    6.8384   -7.9290   17.5282 N   0  0  0  0  0  0  0  0  0  0  0  0
    9.4126   -5.9853   18.4899 C   0  0  0  0  0  0  0  0  0  0  0  0
    4.2064  -10.3242   18.3302 C   0  0  0  0  0  0  0  0  0  0  0  0
    9.6599   -4.1551   16.4796 N   0  0  0  0  0  0  0  0  0  0  0  0
    7.0644   -6.4612   15.7375 N   0  0  0  0  0  0  0  0  0  0  0  0
    5.3549   -9.6322   18.3190 C   0  0  0  0  0  0  0  0  0  0  0  0
   10.3704   -4.9638   18.6510 C   0  0  0  0  0  0  0  0  0  0  0  0
    5.5935   -8.6419   17.4234 C   0  0  0  0  0  0  0  0  0  0  0  0
   13.0726   -4.6648   23.3394 O   0  0  0  0  0  0  0  0  0  0  0  0
    8.5955   -6.0705   17.3996 C   0  0  0  0  0  0  0  0  0  0  0  0
    4.6223   -8.3832   16.5030 C   0  0  0  0  0  0  0  0  0  0  0  0
   12.4690   -5.2624   19.9024 C   0  0  0  0  0  0  0  0  0  0  0  0
    3.2548   -9.9919   17.4189 C   0  0  0  0  0  0  0  0  0  0  0  0
   12.4767   -4.7393   22.1790 C   0  0  0  0  0  0  0  0  0  0  0  0
    7.8593   -5.3772   15.3569 N   0  0  0  0  0  0  0  0  0  0  0  0
    7.4412   -6.9038   16.9283 C   0  0  0  0  0  0  0  0  0  0  0  0
  1 21  4  0
  1 23  4  0
  2  5  1  0
  2 13  4  0
  2 16  4  0
  3  6  4  0
  3  7  4  0
  4 13  4  0
  4 19  4  0
  4 24  4  0
  6 23  4  0
  7 16  1  0
  7 21  4  0
  8 18  1  0
  9 20  4  0
  9 22  4  0
 10 17  1  0
 10 25  1  0
 11 16  4  0
 11 19  4  0
 12 15  4  0
 12 22  4  0
 14 24  4  0
 14 25  4  0
 15 17  4  0
 17 20  4  0
 18 23  1  0
 19 25  4  0
M  END
$$$$

 Created by Python create_sdf_string function

 25 28  0  0  0  0  0  0  0  0999 V2000
   13.1533   -5.2399   21.0682 C   0  0  0  0  0  0  0  0  0  0  0  0
   10.4729   -4.0295   17.6135 C   0  0  0  0  0  0  0  0  0  0  0  0
   10.4789   -4.3641   20.9564 C   0  0  0  0  0  0  0  0  0  0  0  0
    8.7421   -5.1412   16.3650 C   0  0  0  0  0  0  0  0  0  0  0  0
   11.4353   -2.9204   17.8044 C   0  0  0  0  0  0  0  0  0  0  0  0
   11.1529   -4.3028   22.1277 C   0  0  0  0  0  0  0  0  0  0  0  0
   11.1290   -4.8502   19.8052 C   0  0  0  0  0  0  0  0  0  0  0  0
   12.4329   -4.2159   24.4224 C   0  0  0  0  0  0  0  0  0  0  0  0
    3.4740   -9.0387   16.5022 C   0  0  0  0  0  0  0  0  0  0  0  0
    6.8384   -7.9290   17.5282 N   0  0  0  0  0  0  0  0  0  0  0  0
    9.4126   -5.9853   18.4899 C   0  0  0  0  0  0  0  0  0  0  0  0
    4.2064  -10.3242   18.3302 C   0  0  0  0  0  0  0  0  0  0  0  0
    9.6599   -4.1551   16.4796 N   0  0  0  0  0  0  0  0  0  0  0  0
    7.0644   -6.4612   15.7375 N   0  0  0  0  0  0  0  0  0  0  0  0
    5.3549   -9.6322   18.3190 C   0  0  0  0  0  0  0  0  0  0  0  0
   10.3704   -4.9638   18.6510 C   0  0  0  0  0  0  0  0  0  0  0  0
    5.5935   -8.6419   17.4234 C   0  0  0  0  0  0  0  0  0  0  0  0
   13.0726   -4.6648   23.3394 O   0  0  0  0  0  0  0  0  0  0  0  0
    8.5955   -6.0705   17.3996 C   0  0  0  0  0  0  0  0  0  0  0  0
    4.6223   -8.3832   16.5030 C   0  0  0  0  0  0  0  0  0  0  0  0
   12.4690   -5.2624   19.9024 C   0  0  0  0  0  0  0  0  0  0  0  0
    3.2548   -9.9919   17.4189 C   0  0  0  0  0  0  0  0  0  0  0  0
   12.4767   -4.7393   22.1790 C   0  0  0  0  0  0  0  0  0  0  0  0
    7.8593   -5.3772   15.3569 N   0  0  0  0  0  0  0  0  0  0  0  0
    7.4412   -6.9038   16.9283 C   0  0  0  0  0  0  0  0  0  0  0  0
  1 21  4  0
  1 23  4  0
  2  5  1  0
  2 13  4  0
  2 16  4  0
  3  6  4  0
  3  7  4  0
  4 13  4  0
  4 19  4  0
  4 24  4  0
  6 23  4  0
  7 16  1  0
  7 21  4  0
  8 18  1  0
  9 20  4  0
  9 22  4  0
 10 17  1  0
 10 25  1  0
 11 16  4  0
 11 19  4  0
 12 15  4  0
 12 22  4  0
 14 24  4  0
 14 25  4  0
 15 17  4  0
 17 20  4  0
 18 23  1  0
 19 25  4  0
M  END
$$$$

 Created by Python create_sdf_string function

 25 28  0  0  0  0  0  0  0  0999 V2000
   13.1533   -5.2399   21.0682 C   0  0  0  0  0  0  0  0  0  0  0  0
   10.4729   -4.0295   17.6135 C   0  0  0  0  0  0  0  0  0  0  0  0
   10.4789   -4.3641   20.9564 C   0  0  0  0  0  0  0  0  0  0  0  0
    8.7421   -5.1412   16.3650 C   0  0  0  0  0  0  0  0  0  0  0  0
   11.4353   -2.9204   17.8044 C   0  0  0  0  0  0  0  0  0  0  0  0
   11.1529   -4.3028   22.1277 C   0  0  0  0  0  0  0  0  0  0  0  0
   11.1290   -4.8502   19.8052 C   0  0  0  0  0  0  0  0  0  0  0  0
   12.4329   -4.2159   24.4224 C   0  0  0  0  0  0  0  0  0  0  0  0
    3.4740   -9.0387   16.5022 C   0  0  0  0  0  0  0  0  0  0  0  0
    6.8384   -7.9290   17.5282 N   0  0  0  0  0  0  0  0  0  0  0  0
    9.4126   -5.9853   18.4899 C   0  0  0  0  0  0  0  0  0  0  0  0
    4.2064  -10.3242   18.3302 C   0  0  0  0  0  0  0  0  0  0  0  0
    9.6599   -4.1551   16.4796 N   0  0  0  0  0  0  0  0  0  0  0  0
    7.0644   -6.4612   15.7375 N   0  0  0  0  0  0  0  0  0  0  0  0
    5.3549   -9.6322   18.3190 C   0  0  0  0  0  0  0  0  0  0  0  0
   10.3704   -4.9638   18.6510 C   0  0  0  0  0  0  0  0  0  0  0  0
    5.5935   -8.6419   17.4234 C   0  0  0  0  0  0  0  0  0  0  0  0
   13.0726   -4.6648   23.3394 O   0  0  0  0  0  0  0  0  0  0  0  0
    8.5955   -6.0705   17.3996 C   0  0  0  0  0  0  0  0  0  0  0  0
    4.6223   -8.3832   16.5030 C   0  0  0  0  0  0  0  0  0  0  0  0
   12.4690   -5.2624   19.9024 C   0  0  0  0  0  0  0  0  0  0  0  0
    3.2548   -9.9919   17.4189 C   0  0  0  0  0  0  0  0  0  0  0  0
   12.4767   -4.7393   22.1790 C   0  0  0  0  0  0  0  0  0  0  0  0
    7.8593   -5.3772   15.3569 N   0  0  0  0  0  0  0  0  0  0  0  0
    7.4412   -6.9038   16.9283 C   0  0  0  0  0  0  0  0  0  0  0  0
  1 21  4  0
  1 23  4  0
  2  5  1  0
  2 13  4  0
  2 16  4  0
  3  6  4  0
  3  7  4  0
  4 13  4  0
  4 19  4  0
  4 24  4  0
  6 23  4  0
  7 16  1  0
  7 21  4  0
  8 18  1  0
  9 20  4  0
  9 22  4  0
 10 17  1  0
 10 25  1  0
 11 16  4  0
 11 19  4  0
 12 15  4  0
 12 22  4  0
 14 24  4  0
 14 25  4  0
 15 17  4  0
 17 20  4  0
 18 23  1  0
 19 25  4  0
M  END
$$$$

 Created by Python create_sdf_string function

 25 28  0  0  0  0  0  0  0  0999 V2000
   13.1533   -5.2399   21.0682 C   0  0  0  0  0  0  0  0  0  0  0  0
   10.4729   -4.0295   17.6135 C   0  0  0  0  0  0  0  0  0  0  0  0
   10.4789   -4.3641   20.9564 C   0  0  0  0  0  0  0  0  0  0  0  0
    8.7421   -5.1412   16.3650 C   0  0  0  0  0  0  0  0  0  0  0  0
   11.4353   -2.9204   17.8044 C   0  0  0  0  0  0  0  0  0  0  0  0
   11.1529   -4.3028   22.1277 C   0  0  0  0  0  0  0  0  0  0  0  0
   11.1290   -4.8502   19.8052 C   0  0  0  0  0  0  0  0  0  0  0  0
   12.4329   -4.2159   24.4224 C   0  0  0  0  0  0  0  0  0  0  0  0
    3.4740   -9.0387   16.5022 C   0  0  0  0  0  0  0  0  0  0  0  0
    6.8384   -7.9290   17.5282 N   0  0  0  0  0  0  0  0  0  0  0  0
    9.4126   -5.9853   18.4899 C   0  0  0  0  0  0  0  0  0  0  0  0
    4.2064  -10.3242   18.3302 C   0  0  0  0  0  0  0  0  0  0  0  0
    9.6599   -4.1551   16.4796 N   0  0  0  0  0  0  0  0  0  0  0  0
    7.0644   -6.4612   15.7375 N   0  0  0  0  0  0  0  0  0  0  0  0
    5.3549   -9.6322   18.3190 C   0  0  0  0  0  0  0  0  0  0  0  0
   10.3704   -4.9638   18.6510 C   0  0  0  0  0  0  0  0  0  0  0  0
    5.5935   -8.6419   17.4234 C   0  0  0  0  0  0  0  0  0  0  0  0
   13.0726   -4.6648   23.3394 O   0  0  0  0  0  0  0  0  0  0  0  0
    8.5955   -6.0705   17.3996 C   0  0  0  0  0  0  0  0  0  0  0  0
    4.6223   -8.3832   16.5030 C   0  0  0  0  0  0  0  0  0  0  0  0
   12.4690   -5.2624   19.9024 C   0  0  0  0  0  0  0  0  0  0  0  0
    3.2548   -9.9919   17.4189 C   0  0  0  0  0  0  0  0  0  0  0  0
   12.4767   -4.7393   22.1790 C   0  0  0  0  0  0  0  0  0  0  0  0
    7.8593   -5.3772   15.3569 N   0  0  0  0  0  0  0  0  0  0  0  0
    7.4412   -6.9038   16.9283 C   0  0  0  0  0  0  0  0  0  0  0  0
  1 21  4  0
  1 23  4  0
  2  5  1  0
  2 13  4  0
  2 16  4  0
  3  6  4  0
  3  7  4  0
  4 13  4  0
  4 19  4  0
  4 24  4  0
  6 23  4  0
  7 16  1  0
  7 21  4  0
  8 18  1  0
  9 20  4  0
  9 22  4  0
 10 17  1  0
 10 25  1  0
 11 16  4  0
 11 19  4  0
 12 15  4  0
 12 22  4  0
 14 24  4  0
 14 25  4  0
 15 17  4  0
 17 20  4  0
 18 23  1  0
 19 25  4  0
M  END
$$$$

 Created by Python create_sdf_string function

 25 28  0  0  0  0  0  0  0  0999 V2000
   13.1533   -5.2399   21.0682 C   0  0  0  0  0  0  0  0  0  0  0  0
   10.4729   -4.0295   17.6135 C   0  0  0  0  0  0  0  0  0  0  0  0
   10.4789   -4.3641   20.9564 C   0  0  0  0  0  0  0  0  0  0  0  0
    8.7421   -5.1412   16.3650 C   0  0  0  0  0  0  0  0  0  0  0  0
   11.4353   -2.9204   17.8044 C   0  0  0  0  0  0  0  0  0  0  0  0
   11.1529   -4.3028   22.1277 C   0  0  0  0  0  0  0  0  0  0  0  0
   11.1290   -4.8502   19.8052 C   0  0  0  0  0  0  0  0  0  0  0  0
   12.4329   -4.2159   24.4224 C   0  0  0  0  0  0  0  0  0  0  0  0
    3.4740   -9.0387   16.5022 C   0  0  0  0  0  0  0  0  0  0  0  0
    6.8384   -7.9290   17.5282 N   0  0  0  0  0  0  0  0  0  0  0  0
    9.4126   -5.9853   18.4899 C   0  0  0  0  0  0  0  0  0  0  0  0
    4.2064  -10.3242   18.3302 C   0  0  0  0  0  0  0  0  0  0  0  0
    9.6599   -4.1551   16.4796 N   0  0  0  0  0  0  0  0  0  0  0  0
    7.0644   -6.4612   15.7375 N   0  0  0  0  0  0  0  0  0  0  0  0
    5.3549   -9.6322   18.3190 C   0  0  0  0  0  0  0  0  0  0  0  0
   10.3704   -4.9638   18.6510 C   0  0  0  0  0  0  0  0  0  0  0  0
    5.5935   -8.6419   17.4234 C   0  0  0  0  0  0  0  0  0  0  0  0
   13.0726   -4.6648   23.3394 O   0  0  0  0  0  0  0  0  0  0  0  0
    8.5955   -6.0705   17.3996 C   0  0  0  0  0  0  0  0  0  0  0  0
    4.6223   -8.3832   16.5030 C   0  0  0  0  0  0  0  0  0  0  0  0
   12.4690   -5.2624   19.9024 C   0  0  0  0  0  0  0  0  0  0  0  0
    3.2548   -9.9919   17.4189 C   0  0  0  0  0  0  0  0  0  0  0  0
   12.4767   -4.7393   22.1790 C   0  0  0  0  0  0  0  0  0  0  0  0
    7.8593   -5.3772   15.3569 N   0  0  0  0  0  0  0  0  0  0  0  0
    7.4412   -6.9038   16.9283 C   0  0  0  0  0  0  0  0  0  0  0  0
  1 21  4  0
  1 23  4  0
  2  5  1  0
  2 13  4  0
  2 16  4  0
  3  6  4  0
  3  7  4  0
  4 13  4  0
  4 19  4  0
  4 24  4  0
  6 23  4  0
  7 16  1  0
  7 21  4  0
  8 18  1  0
  9 20  4  0
  9 22  4  0
 10 17  1  0
 10 25  1  0
 11 16  4  0
 11 19  4  0
 12 15  4  0
 12 22  4  0
 14 24  4  0
 14 25  4  0
 15 17  4  0
 17 20  4  0
 18 23  1  0
 19 25  4  0
M  END
$$$$

 Created by Python create_sdf_string function

 25 28  0  0  0  0  0  0  0  0999 V2000
   13.1533   -5.2399   21.0682 C   0  0  0  0  0  0  0  0  0  0  0  0
   10.4729   -4.0295   17.6135 C   0  0  0  0  0  0  0  0  0  0  0  0
   10.4789   -4.3641   20.9564 C   0  0  0  0  0  0  0  0  0  0  0  0
    8.7421   -5.1412   16.3650 C   0  0  0  0  0  0  0  0  0  0  0  0
   11.4353   -2.9204   17.8044 C   0  0  0  0  0  0  0  0  0  0  0  0
   11.1529   -4.3028   22.1277 C   0  0  0  0  0  0  0  0  0  0  0  0
   11.1290   -4.8502   19.8052 C   0  0  0  0  0  0  0  0  0  0  0  0
   12.4329   -4.2159   24.4224 C   0  0  0  0  0  0  0  0  0  0  0  0
    3.4740   -9.0387   16.5022 C   0  0  0  0  0  0  0  0  0  0  0  0
    6.8384   -7.9290   17.5282 N   0  0  0  0  0  0  0  0  0  0  0  0
    9.4126   -5.9853   18.4899 C   0  0  0  0  0  0  0  0  0  0  0  0
    4.2064  -10.3242   18.3302 C   0  0  0  0  0  0  0  0  0  0  0  0
    9.6599   -4.1551   16.4796 N   0  0  0  0  0  0  0  0  0  0  0  0
    7.0644   -6.4612   15.7375 N   0  0  0  0  0  0  0  0  0  0  0  0
    5.3549   -9.6322   18.3190 C   0  0  0  0  0  0  0  0  0  0  0  0
   10.3704   -4.9638   18.6510 C   0  0  0  0  0  0  0  0  0  0  0  0
    5.5935   -8.6419   17.4234 C   0  0  0  0  0  0  0  0  0  0  0  0
   13.0726   -4.6648   23.3394 O   0  0  0  0  0  0  0  0  0  0  0  0
    8.5955   -6.0705   17.3996 C   0  0  0  0  0  0  0  0  0  0  0  0
    4.6223   -8.3832   16.5030 C   0  0  0  0  0  0  0  0  0  0  0  0
   12.4690   -5.2624   19.9024 C   0  0  0  0  0  0  0  0  0  0  0  0
    3.2548   -9.9919   17.4189 C   0  0  0  0  0  0  0  0  0  0  0  0
   12.4767   -4.7393   22.1790 C   0  0  0  0  0  0  0  0  0  0  0  0
    7.8593   -5.3772   15.3569 N   0  0  0  0  0  0  0  0  0  0  0  0
    7.4412   -6.9038   16.9283 C   0  0  0  0  0  0  0  0  0  0  0  0
  1 21  4  0
  1 23  4  0
  2  5  1  0
  2 13  4  0
  2 16  4  0
  3  6  4  0
  3  7  4  0
  4 13  4  0
  4 19  4  0
  4 24  4  0
  6 23  4  0
  7 16  1  0
  7 21  4  0
  8 18  1  0
  9 20  4  0
  9 22  4  0
 10 17  1  0
 10 25  1  0
 11 16  4  0
 11 19  4  0
 12 15  4  0
 12 22  4  0
 14 24  4  0
 14 25  4  0
 15 17  4  0
 17 20  4  0
 18 23  1  0
 19 25  4  0
M  END
$$$$

 Created by Python create_sdf_string function

 25 28  0  0  0  0  0  0  0  0999 V2000
   13.1533   -5.2399   21.0682 C   0  0  0  0  0  0  0  0  0  0  0  0
   10.4729   -4.0295   17.6135 C   0  0  0  0  0  0  0  0  0  0  0  0
   10.4789   -4.3641   20.9564 C   0  0  0  0  0  0  0  0  0  0  0  0
    8.7421   -5.1412   16.3650 C   0  0  0  0  0  0  0  0  0  0  0  0
   11.4353   -2.9204   17.8044 C   0  0  0  0  0  0  0  0  0  0  0  0
   11.1529   -4.3028   22.1277 C   0  0  0  0  0  0  0  0  0  0  0  0
   11.1290   -4.8502   19.8052 C   0  0  0  0  0  0  0  0  0  0  0  0
   12.4329   -4.2159   24.4224 C   0  0  0  0  0  0  0  0  0  0  0  0
    3.4740   -9.0387   16.5022 C   0  0  0  0  0  0  0  0  0  0  0  0
    6.8384   -7.9290   17.5282 N   0  0  0  0  0  0  0  0  0  0  0  0
    9.4126   -5.9853   18.4899 C   0  0  0  0  0  0  0  0  0  0  0  0
    4.2064  -10.3242   18.3302 C   0  0  0  0  0  0  0  0  0  0  0  0
    9.6599   -4.1551   16.4796 N   0  0  0  0  0  0  0  0  0  0  0  0
    7.0644   -6.4612   15.7375 N   0  0  0  0  0  0  0  0  0  0  0  0
    5.3549   -9.6322   18.3190 C   0  0  0  0  0  0  0  0  0  0  0  0
   10.3704   -4.9638   18.6510 C   0  0  0  0  0  0  0  0  0  0  0  0
    5.5935   -8.6419   17.4234 C   0  0  0  0  0  0  0  0  0  0  0  0
   13.0726   -4.6648   23.3394 O   0  0  0  0  0  0  0  0  0  0  0  0
    8.5955   -6.0705   17.3996 C   0  0  0  0  0  0  0  0  0  0  0  0
    4.6223   -8.3832   16.5030 C   0  0  0  0  0  0  0  0  0  0  0  0
   12.4690   -5.2624   19.9024 C   0  0  0  0  0  0  0  0  0  0  0  0
    3.2548   -9.9919   17.4189 C   0  0  0  0  0  0  0  0  0  0  0  0
   12.4767   -4.7393   22.1790 C   0  0  0  0  0  0  0  0  0  0  0  0
    7.8593   -5.3772   15.3569 N   0  0  0  0  0  0  0  0  0  0  0  0
    7.4412   -6.9038   16.9283 C   0  0  0  0  0  0  0  0  0  0  0  0
  1 21  4  0
  1 23  4  0
  2  5  1  0
  2 13  4  0
  2 16  4  0
  3  6  4  0
  3  7  4  0
  4 13  4  0
  4 19  4  0
  4 24  4  0
  6 23  4  0
  7 16  1  0
  7 21  4  0
  8 18  1  0
  9 20  4  0
  9 22  4  0
 10 17  1  0
 10 25  1  0
 11 16  4  0
 11 19  4  0
 12 15  4  0
 12 22  4  0
 14 24  4  0
 14 25  4  0
 15 17  4  0
 17 20  4  0
 18 23  1  0
 19 25  4  0
M  END
$$$$

 Created by Python create_sdf_string function

 25 28  0  0  0  0  0  0  0  0999 V2000
   13.1533   -5.2399   21.0682 C   0  0  0  0  0  0  0  0  0  0  0  0
   10.4729   -4.0295   17.6135 C   0  0  0  0  0  0  0  0  0  0  0  0
   10.4789   -4.3641   20.9564 C   0  0  0  0  0  0  0  0  0  0  0  0
    8.7421   -5.1412   16.3650 C   0  0  0  0  0  0  0  0  0  0  0  0
   11.4353   -2.9204   17.8044 C   0  0  0  0  0  0  0  0  0  0  0  0
   11.1529   -4.3028   22.1277 C   0  0  0  0  0  0  0  0  0  0  0  0
   11.1290   -4.8502   19.8052 C   0  0  0  0  0  0  0  0  0  0  0  0
   12.4329   -4.2159   24.4224 C   0  0  0  0  0  0  0  0  0  0  0  0
    3.4740   -9.0387   16.5022 C   0  0  0  0  0  0  0  0  0  0  0  0
    6.8384   -7.9290   17.5282 N   0  0  0  0  0  0  0  0  0  0  0  0
    9.4126   -5.9853   18.4899 C   0  0  0  0  0  0  0  0  0  0  0  0
    4.2064  -10.3242   18.3302 C   0  0  0  0  0  0  0  0  0  0  0  0
    9.6599   -4.1551   16.4796 N   0  0  0  0  0  0  0  0  0  0  0  0
    7.0644   -6.4612   15.7375 N   0  0  0  0  0  0  0  0  0  0  0  0
    5.3549   -9.6322   18.3190 C   0  0  0  0  0  0  0  0  0  0  0  0
   10.3704   -4.9638   18.6510 C   0  0  0  0  0  0  0  0  0  0  0  0
    5.5935   -8.6419   17.4234 C   0  0  0  0  0  0  0  0  0  0  0  0
   13.0726   -4.6648   23.3394 O   0  0  0  0  0  0  0  0  0  0  0  0
    8.5955   -6.0705   17.3996 C   0  0  0  0  0  0  0  0  0  0  0  0
    4.6223   -8.3832   16.5030 C   0  0  0  0  0  0  0  0  0  0  0  0
   12.4690   -5.2624   19.9024 C   0  0  0  0  0  0  0  0  0  0  0  0
    3.2548   -9.9919   17.4189 C   0  0  0  0  0  0  0  0  0  0  0  0
   12.4767   -4.7393   22.1790 C   0  0  0  0  0  0  0  0  0  0  0  0
    7.8593   -5.3772   15.3569 N   0  0  0  0  0  0  0  0  0  0  0  0
    7.4412   -6.9038   16.9283 C   0  0  0  0  0  0  0  0  0  0  0  0
  1 21  4  0
  1 23  4  0
  2  5  1  0
  2 13  4  0
  2 16  4  0
  3  6  4  0
  3  7  4  0
  4 13  4  0
  4 19  4  0
  4 24  4  0
  6 23  4  0
  7 16  1  0
  7 21  4  0
  8 18  1  0
  9 20  4  0
  9 22  4  0
 10 17  1  0
 10 25  1  0
 11 16  4  0
 11 19  4  0
 12 15  4  0
 12 22  4  0
 14 24  4  0
 14 25  4  0
 15 17  4  0
 17 20  4  0
 18 23  1  0
 19 25  4  0
M  END
$$$$

 Created by Python create_sdf_string function

 25 28  0  0  0  0  0  0  0  0999 V2000
   13.1533   -5.2399   21.0682 C   0  0  0  0  0  0  0  0  0  0  0  0
   10.4729   -4.0295   17.6135 C   0  0  0  0  0  0  0  0  0  0  0  0
   10.4789   -4.3641   20.9564 C   0  0  0  0  0  0  0  0  0  0  0  0
    8.7421   -5.1412   16.3650 C   0  0  0  0  0  0  0  0  0  0  0  0
   11.4353   -2.9204   17.8044 C   0  0  0  0  0  0  0  0  0  0  0  0
   11.1529   -4.3028   22.1277 C   0  0  0  0  0  0  0  0  0  0  0  0
   11.1290   -4.8502   19.8052 C   0  0  0  0  0  0  0  0  0  0  0  0
   12.4329   -4.2159   24.4224 C   0  0  0  0  0  0  0  0  0  0  0  0
    3.4740   -9.0387   16.5022 C   0  0  0  0  0  0  0  0  0  0  0  0
    6.8384   -7.9290   17.5282 N   0  0  0  0  0  0  0  0  0  0  0  0
    9.4126   -5.9853   18.4899 C   0  0  0  0  0  0  0  0  0  0  0  0
    4.2064  -10.3242   18.3302 C   0  0  0  0  0  0  0  0  0  0  0  0
    9.6599   -4.1551   16.4796 N   0  0  0  0  0  0  0  0  0  0  0  0
    7.0644   -6.4612   15.7375 N   0  0  0  0  0  0  0  0  0  0  0  0
    5.3549   -9.6322   18.3190 C   0  0  0  0  0  0  0  0  0  0  0  0
   10.3704   -4.9638   18.6510 C   0  0  0  0  0  0  0  0  0  0  0  0
    5.5935   -8.6419   17.4234 C   0  0  0  0  0  0  0  0  0  0  0  0
   13.0726   -4.6648   23.3394 O   0  0  0  0  0  0  0  0  0  0  0  0
    8.5955   -6.0705   17.3996 C   0  0  0  0  0  0  0  0  0  0  0  0
    4.6223   -8.3832   16.5030 C   0  0  0  0  0  0  0  0  0  0  0  0
   12.4690   -5.2624   19.9024 C   0  0  0  0  0  0  0  0  0  0  0  0
    3.2548   -9.9919   17.4189 C   0  0  0  0  0  0  0  0  0  0  0  0
   12.4767   -4.7393   22.1790 C   0  0  0  0  0  0  0  0  0  0  0  0
    7.8593   -5.3772   15.3569 N   0  0  0  0  0  0  0  0  0  0  0  0
    7.4412   -6.9038   16.9283 C   0  0  0  0  0  0  0  0  0  0  0  0
  1 21  4  0
  1 23  4  0
  2  5  1  0
  2 13  4  0
  2 16  4  0
  3  6  4  0
  3  7  4  0
  4 13  4  0
  4 19  4  0
  4 24  4  0
  6 23  4  0
  7 16  1  0
  7 21  4  0
  8 18  1  0
  9 20  4  0
  9 22  4  0
 10 17  1  0
 10 25  1  0
 11 16  4  0
 11 19  4  0
 12 15  4  0
 12 22  4  0
 14 24  4  0
 14 25  4  0
 15 17  4  0
 17 20  4  0
 18 23  1  0
 19 25  4  0
M  END
$$$$

 Created by Python create_sdf_string function

 25 28  0  0  0  0  0  0  0  0999 V2000
   13.1533   -5.2399   21.0682 C   0  0  0  0  0  0  0  0  0  0  0  0
   10.4729   -4.0295   17.6135 C   0  0  0  0  0  0  0  0  0  0  0  0
   10.4789   -4.3641   20.9564 C   0  0  0  0  0  0  0  0  0  0  0  0
    8.7421   -5.1412   16.3650 C   0  0  0  0  0  0  0  0  0  0  0  0
   11.4353   -2.9204   17.8044 C   0  0  0  0  0  0  0  0  0  0  0  0
   11.1529   -4.3028   22.1277 C   0  0  0  0  0  0  0  0  0  0  0  0
   11.1290   -4.8502   19.8052 C   0  0  0  0  0  0  0  0  0  0  0  0
   12.4329   -4.2159   24.4224 C   0  0  0  0  0  0  0  0  0  0  0  0
    3.4740   -9.0387   16.5022 C   0  0  0  0  0  0  0  0  0  0  0  0
    6.8384   -7.9290   17.5282 N   0  0  0  0  0  0  0  0  0  0  0  0
    9.4126   -5.9853   18.4899 C   0  0  0  0  0  0  0  0  0  0  0  0
    4.2064  -10.3242   18.3302 C   0  0  0  0  0  0  0  0  0  0  0  0
    9.6599   -4.1551   16.4796 N   0  0  0  0  0  0  0  0  0  0  0  0
    7.0644   -6.4612   15.7375 N   0  0  0  0  0  0  0  0  0  0  0  0
    5.3549   -9.6322   18.3190 C   0  0  0  0  0  0  0  0  0  0  0  0
   10.3704   -4.9638   18.6510 C   0  0  0  0  0  0  0  0  0  0  0  0
    5.5935   -8.6419   17.4234 C   0  0  0  0  0  0  0  0  0  0  0  0
   13.0726   -4.6648   23.3394 O   0  0  0  0  0  0  0  0  0  0  0  0
    8.5955   -6.0705   17.3996 C   0  0  0  0  0  0  0  0  0  0  0  0
    4.6223   -8.3832   16.5030 C   0  0  0  0  0  0  0  0  0  0  0  0
   12.4690   -5.2624   19.9024 C   0  0  0  0  0  0  0  0  0  0  0  0
    3.2548   -9.9919   17.4189 C   0  0  0  0  0  0  0  0  0  0  0  0
   12.4767   -4.7393   22.1790 C   0  0  0  0  0  0  0  0  0  0  0  0
    7.8593   -5.3772   15.3569 N   0  0  0  0  0  0  0  0  0  0  0  0
    7.4412   -6.9038   16.9283 C   0  0  0  0  0  0  0  0  0  0  0  0
  1 21  4  0
  1 23  4  0
  2  5  1  0
  2 13  4  0
  2 16  4  0
  3  6  4  0
  3  7  4  0
  4 13  4  0
  4 19  4  0
  4 24  4  0
  6 23  4  0
  7 16  1  0
  7 21  4  0
  8 18  1  0
  9 20  4  0
  9 22  4  0
 10 17  1  0
 10 25  1  0
 11 16  4  0
 11 19  4  0
 12 15  4  0
 12 22  4  0
 14 24  4  0
 14 25  4  0
 15 17  4  0
 17 20  4  0
 18 23  1  0
 19 25  4  0
M  END
$$$$

 Created by Python create_sdf_string function

 25 28  0  0  0  0  0  0  0  0999 V2000
   13.1533   -5.2399   21.0682 C   0  0  0  0  0  0  0  0  0  0  0  0
   10.4729   -4.0295   17.6135 C   0  0  0  0  0  0  0  0  0  0  0  0
   10.4789   -4.3641   20.9564 C   0  0  0  0  0  0  0  0  0  0  0  0
    8.7421   -5.1412   16.3650 C   0  0  0  0  0  0  0  0  0  0  0  0
   11.4353   -2.9204   17.8044 C   0  0  0  0  0  0  0  0  0  0  0  0
   11.1529   -4.3028   22.1277 C   0  0  0  0  0  0  0  0  0  0  0  0
   11.1290   -4.8502   19.8052 C   0  0  0  0  0  0  0  0  0  0  0  0
   12.4329   -4.2159   24.4224 C   0  0  0  0  0  0  0  0  0  0  0  0
    3.4740   -9.0387   16.5022 C   0  0  0  0  0  0  0  0  0  0  0  0
    6.8384   -7.9290   17.5282 N   0  0  0  0  0  0  0  0  0  0  0  0
    9.4126   -5.9853   18.4899 C   0  0  0  0  0  0  0  0  0  0  0  0
    4.2064  -10.3242   18.3302 C   0  0  0  0  0  0  0  0  0  0  0  0
    9.6599   -4.1551   16.4796 N   0  0  0  0  0  0  0  0  0  0  0  0
    7.0644   -6.4612   15.7375 N   0  0  0  0  0  0  0  0  0  0  0  0
    5.3549   -9.6322   18.3190 C   0  0  0  0  0  0  0  0  0  0  0  0
   10.3704   -4.9638   18.6510 C   0  0  0  0  0  0  0  0  0  0  0  0
    5.5935   -8.6419   17.4234 C   0  0  0  0  0  0  0  0  0  0  0  0
   13.0726   -4.6648   23.3394 O   0  0  0  0  0  0  0  0  0  0  0  0
    8.5955   -6.0705   17.3996 C   0  0  0  0  0  0  0  0  0  0  0  0
    4.6223   -8.3832   16.5030 C   0  0  0  0  0  0  0  0  0  0  0  0
   12.4690   -5.2624   19.9024 C   0  0  0  0  0  0  0  0  0  0  0  0
    3.2548   -9.9919   17.4189 C   0  0  0  0  0  0  0  0  0  0  0  0
   12.4767   -4.7393   22.1790 C   0  0  0  0  0  0  0  0  0  0  0  0
    7.8593   -5.3772   15.3569 N   0  0  0  0  0  0  0  0  0  0  0  0
    7.4412   -6.9038   16.9283 C   0  0  0  0  0  0  0  0  0  0  0  0
  1 21  4  0
  1 23  4  0
  2  5  1  0
  2 13  4  0
  2 16  4  0
  3  6  4  0
  3  7  4  0
  4 13  4  0
  4 19  4  0
  4 24  4  0
  6 23  4  0
  7 16  1  0
  7 21  4  0
  8 18  1  0
  9 20  4  0
  9 22  4  0
 10 17  1  0
 10 25  1  0
 11 16  4  0
 11 19  4  0
 12 15  4  0
 12 22  4  0
 14 24  4  0
 14 25  4  0
 15 17  4  0
 17 20  4  0
 18 23  1  0
 19 25  4  0
M  END
$$$$

 Created by Python create_sdf_string function

 25 28  0  0  0  0  0  0  0  0999 V2000
   13.1533   -5.2399   21.0682 C   0  0  0  0  0  0  0  0  0  0  0  0
   10.4729   -4.0295   17.6135 C   0  0  0  0  0  0  0  0  0  0  0  0
   10.4789   -4.3641   20.9564 C   0  0  0  0  0  0  0  0  0  0  0  0
    8.7421   -5.1412   16.3650 C   0  0  0  0  0  0  0  0  0  0  0  0
   11.4353   -2.9204   17.8044 C   0  0  0  0  0  0  0  0  0  0  0  0
   11.1529   -4.3028   22.1277 C   0  0  0  0  0  0  0  0  0  0  0  0
   11.1290   -4.8502   19.8052 C   0  0  0  0  0  0  0  0  0  0  0  0
   12.4329   -4.2159   24.4224 C   0  0  0  0  0  0  0  0  0  0  0  0
    3.4740   -9.0387   16.5022 C   0  0  0  0  0  0  0  0  0  0  0  0
    6.8384   -7.9290   17.5282 N   0  0  0  0  0  0  0  0  0  0  0  0
    9.4126   -5.9853   18.4899 C   0  0  0  0  0  0  0  0  0  0  0  0
    4.2064  -10.3242   18.3302 C   0  0  0  0  0  0  0  0  0  0  0  0
    9.6599   -4.1551   16.4796 N   0  0  0  0  0  0  0  0  0  0  0  0
    7.0644   -6.4612   15.7375 N   0  0  0  0  0  0  0  0  0  0  0  0
    5.3549   -9.6322   18.3190 C   0  0  0  0  0  0  0  0  0  0  0  0
   10.3704   -4.9638   18.6510 C   0  0  0  0  0  0  0  0  0  0  0  0
    5.5935   -8.6419   17.4234 C   0  0  0  0  0  0  0  0  0  0  0  0
   13.0726   -4.6648   23.3394 O   0  0  0  0  0  0  0  0  0  0  0  0
    8.5955   -6.0705   17.3996 C   0  0  0  0  0  0  0  0  0  0  0  0
    4.6223   -8.3832   16.5030 C   0  0  0  0  0  0  0  0  0  0  0  0
   12.4690   -5.2624   19.9024 C   0  0  0  0  0  0  0  0  0  0  0  0
    3.2548   -9.9919   17.4189 C   0  0  0  0  0  0  0  0  0  0  0  0
   12.4767   -4.7393   22.1790 C   0  0  0  0  0  0  0  0  0  0  0  0
    7.8593   -5.3772   15.3569 N   0  0  0  0  0  0  0  0  0  0  0  0
    7.4412   -6.9038   16.9283 C   0  0  0  0  0  0  0  0  0  0  0  0
  1 21  4  0
  1 23  4  0
  2  5  1  0
  2 13  4  0
  2 16  4  0
  3  6  4  0
  3  7  4  0
  4 13  4  0
  4 19  4  0
  4 24  4  0
  6 23  4  0
  7 16  1  0
  7 21  4  0
  8 18  1  0
  9 20  4  0
  9 22  4  0
 10 17  1  0
 10 25  1  0
 11 16  4  0
 11 19  4  0
 12 15  4  0
 12 22  4  0
 14 24  4  0
 14 25  4  0
 15 17  4  0
 17 20  4  0
 18 23  1  0
 19 25  4  0
M  END
$$$$

 Created by Python create_sdf_string function

 25 28  0  0  0  0  0  0  0  0999 V2000
   13.1533   -5.2399   21.0682 C   0  0  0  0  0  0  0  0  0  0  0  0
   10.4729   -4.0295   17.6135 C   0  0  0  0  0  0  0  0  0  0  0  0
   10.4789   -4.3641   20.9564 C   0  0  0  0  0  0  0  0  0  0  0  0
    8.7421   -5.1412   16.3650 C   0  0  0  0  0  0  0  0  0  0  0  0
   11.4353   -2.9204   17.8044 C   0  0  0  0  0  0  0  0  0  0  0  0
   11.1529   -4.3028   22.1277 C   0  0  0  0  0  0  0  0  0  0  0  0
   11.1290   -4.8502   19.8052 C   0  0  0  0  0  0  0  0  0  0  0  0
   12.4329   -4.2159   24.4224 C   0  0  0  0  0  0  0  0  0  0  0  0
    3.4740   -9.0387   16.5022 C   0  0  0  0  0  0  0  0  0  0  0  0
    6.8384   -7.9290   17.5282 N   0  0  0  0  0  0  0  0  0  0  0  0
    9.4126   -5.9853   18.4899 C   0  0  0  0  0  0  0  0  0  0  0  0
    4.2064  -10.3242   18.3302 C   0  0  0  0  0  0  0  0  0  0  0  0
    9.6599   -4.1551   16.4796 N   0  0  0  0  0  0  0  0  0  0  0  0
    7.0644   -6.4612   15.7375 N   0  0  0  0  0  0  0  0  0  0  0  0
    5.3549   -9.6322   18.3190 C   0  0  0  0  0  0  0  0  0  0  0  0
   10.3704   -4.9638   18.6510 C   0  0  0  0  0  0  0  0  0  0  0  0
    5.5935   -8.6419   17.4234 C   0  0  0  0  0  0  0  0  0  0  0  0
   13.0726   -4.6648   23.3394 O   0  0  0  0  0  0  0  0  0  0  0  0
    8.5955   -6.0705   17.3996 C   0  0  0  0  0  0  0  0  0  0  0  0
    4.6223   -8.3832   16.5030 C   0  0  0  0  0  0  0  0  0  0  0  0
   12.4690   -5.2624   19.9024 C   0  0  0  0  0  0  0  0  0  0  0  0
    3.2548   -9.9919   17.4189 C   0  0  0  0  0  0  0  0  0  0  0  0
   12.4767   -4.7393   22.1790 C   0  0  0  0  0  0  0  0  0  0  0  0
    7.8593   -5.3772   15.3569 N   0  0  0  0  0  0  0  0  0  0  0  0
    7.4412   -6.9038   16.9283 C   0  0  0  0  0  0  0  0  0  0  0  0
  1 21  4  0
  1 23  4  0
  2  5  1  0
  2 13  4  0
  2 16  4  0
  3  6  4  0
  3  7  4  0
  4 13  4  0
  4 19  4  0
  4 24  4  0
  6 23  4  0
  7 16  1  0
  7 21  4  0
  8 18  1  0
  9 20  4  0
  9 22  4  0
 10 17  1  0
 10 25  1  0
 11 16  4  0
 11 19  4  0
 12 15  4  0
 12 22  4  0
 14 24  4  0
 14 25  4  0
 15 17  4  0
 17 20  4  0
 18 23  1  0
 19 25  4  0
M  END
$$$$

 Created by Python create_sdf_string function

 25 28  0  0  0  0  0  0  0  0999 V2000
   13.1533   -5.2399   21.0682 C   0  0  0  0  0  0  0  0  0  0  0  0
   10.4729   -4.0295   17.6135 C   0  0  0  0  0  0  0  0  0  0  0  0
   10.4789   -4.3641   20.9564 C   0  0  0  0  0  0  0  0  0  0  0  0
    8.7421   -5.1412   16.3650 C   0  0  0  0  0  0  0  0  0  0  0  0
   11.4353   -2.9204   17.8044 C   0  0  0  0  0  0  0  0  0  0  0  0
   11.1529   -4.3028   22.1277 C   0  0  0  0  0  0  0  0  0  0  0  0
   11.1290   -4.8502   19.8052 C   0  0  0  0  0  0  0  0  0  0  0  0
   12.4329   -4.2159   24.4224 C   0  0  0  0  0  0  0  0  0  0  0  0
    3.4740   -9.0387   16.5022 C   0  0  0  0  0  0  0  0  0  0  0  0
    6.8384   -7.9290   17.5282 N   0  0  0  0  0  0  0  0  0  0  0  0
    9.4126   -5.9853   18.4899 C   0  0  0  0  0  0  0  0  0  0  0  0
    4.2064  -10.3242   18.3302 C   0  0  0  0  0  0  0  0  0  0  0  0
    9.6599   -4.1551   16.4796 N   0  0  0  0  0  0  0  0  0  0  0  0
    7.0644   -6.4612   15.7375 N   0  0  0  0  0  0  0  0  0  0  0  0
    5.3549   -9.6322   18.3190 C   0  0  0  0  0  0  0  0  0  0  0  0
   10.3704   -4.9638   18.6510 C   0  0  0  0  0  0  0  0  0  0  0  0
    5.5935   -8.6419   17.4234 C   0  0  0  0  0  0  0  0  0  0  0  0
   13.0726   -4.6648   23.3394 O   0  0  0  0  0  0  0  0  0  0  0  0
    8.5955   -6.0705   17.3996 C   0  0  0  0  0  0  0  0  0  0  0  0
    4.6223   -8.3832   16.5030 C   0  0  0  0  0  0  0  0  0  0  0  0
   12.4690   -5.2624   19.9024 C   0  0  0  0  0  0  0  0  0  0  0  0
    3.2548   -9.9919   17.4189 C   0  0  0  0  0  0  0  0  0  0  0  0
   12.4767   -4.7393   22.1790 C   0  0  0  0  0  0  0  0  0  0  0  0
    7.8593   -5.3772   15.3569 N   0  0  0  0  0  0  0  0  0  0  0  0
    7.4412   -6.9038   16.9283 C   0  0  0  0  0  0  0  0  0  0  0  0
  1 21  4  0
  1 23  4  0
  2  5  1  0
  2 13  4  0
  2 16  4  0
  3  6  4  0
  3  7  4  0
  4 13  4  0
  4 19  4  0
  4 24  4  0
  6 23  4  0
  7 16  1  0
  7 21  4  0
  8 18  1  0
  9 20  4  0
  9 22  4  0
 10 17  1  0
 10 25  1  0
 11 16  4  0
 11 19  4  0
 12 15  4  0
 12 22  4  0
 14 24  4  0
 14 25  4  0
 15 17  4  0
 17 20  4  0
 18 23  1  0
 19 25  4  0
M  END
$$$$

 Created by Python create_sdf_string function

 25 28  0  0  0  0  0  0  0  0999 V2000
   13.1533   -5.2399   21.0682 C   0  0  0  0  0  0  0  0  0  0  0  0
   10.4729   -4.0295   17.6135 C   0  0  0  0  0  0  0  0  0  0  0  0
   10.4789   -4.3641   20.9564 C   0  0  0  0  0  0  0  0  0  0  0  0
    8.7421   -5.1412   16.3650 C   0  0  0  0  0  0  0  0  0  0  0  0
   11.4353   -2.9204   17.8044 C   0  0  0  0  0  0  0  0  0  0  0  0
   11.1529   -4.3028   22.1277 C   0  0  0  0  0  0  0  0  0  0  0  0
   11.1290   -4.8502   19.8052 C   0  0  0  0  0  0  0  0  0  0  0  0
   12.4329   -4.2159   24.4224 C   0  0  0  0  0  0  0  0  0  0  0  0
    3.4740   -9.0387   16.5022 C   0  0  0  0  0  0  0  0  0  0  0  0
    6.8384   -7.9290   17.5282 N   0  0  0  0  0  0  0  0  0  0  0  0
    9.4126   -5.9853   18.4899 C   0  0  0  0  0  0  0  0  0  0  0  0
    4.2064  -10.3242   18.3302 C   0  0  0  0  0  0  0  0  0  0  0  0
    9.6599   -4.1551   16.4796 N   0  0  0  0  0  0  0  0  0  0  0  0
    7.0644   -6.4612   15.7375 N   0  0  0  0  0  0  0  0  0  0  0  0
    5.3549   -9.6322   18.3190 C   0  0  0  0  0  0  0  0  0  0  0  0
   10.3704   -4.9638   18.6510 C   0  0  0  0  0  0  0  0  0  0  0  0
    5.5935   -8.6419   17.4234 C   0  0  0  0  0  0  0  0  0  0  0  0
   13.0726   -4.6648   23.3394 O   0  0  0  0  0  0  0  0  0  0  0  0
    8.5955   -6.0705   17.3996 C   0  0  0  0  0  0  0  0  0  0  0  0
    4.6223   -8.3832   16.5030 C   0  0  0  0  0  0  0  0  0  0  0  0
   12.4690   -5.2624   19.9024 C   0  0  0  0  0  0  0  0  0  0  0  0
    3.2548   -9.9919   17.4189 C   0  0  0  0  0  0  0  0  0  0  0  0
   12.4767   -4.7393   22.1790 C   0  0  0  0  0  0  0  0  0  0  0  0
    7.8593   -5.3772   15.3569 N   0  0  0  0  0  0  0  0  0  0  0  0
    7.4412   -6.9038   16.9283 C   0  0  0  0  0  0  0  0  0  0  0  0
  1 21  4  0
  1 23  4  0
  2  5  1  0
  2 13  4  0
  2 16  4  0
  3  6  4  0
  3  7  4  0
  4 13  4  0
  4 19  4  0
  4 24  4  0
  6 23  4  0
  7 16  1  0
  7 21  4  0
  8 18  1  0
  9 20  4  0
  9 22  4  0
 10 17  1  0
 10 25  1  0
 11 16  4  0
 11 19  4  0
 12 15  4  0
 12 22  4  0
 14 24  4  0
 14 25  4  0
 15 17  4  0
 17 20  4  0
 18 23  1  0
 19 25  4  0
M  END
$$$$

 Created by Python create_sdf_string function

 25 28  0  0  0  0  0  0  0  0999 V2000
   13.1533   -5.2399   21.0682 C   0  0  0  0  0  0  0  0  0  0  0  0
   10.4729   -4.0295   17.6135 C   0  0  0  0  0  0  0  0  0  0  0  0
   10.4789   -4.3641   20.9564 C   0  0  0  0  0  0  0  0  0  0  0  0
    8.7421   -5.1412   16.3650 C   0  0  0  0  0  0  0  0  0  0  0  0
   11.4353   -2.9204   17.8044 C   0  0  0  0  0  0  0  0  0  0  0  0
   11.1529   -4.3028   22.1277 C   0  0  0  0  0  0  0  0  0  0  0  0
   11.1290   -4.8502   19.8052 C   0  0  0  0  0  0  0  0  0  0  0  0
   12.4329   -4.2159   24.4224 C   0  0  0  0  0  0  0  0  0  0  0  0
    3.4740   -9.0387   16.5022 C   0  0  0  0  0  0  0  0  0  0  0  0
    6.8384   -7.9290   17.5282 N   0  0  0  0  0  0  0  0  0  0  0  0
    9.4126   -5.9853   18.4899 C   0  0  0  0  0  0  0  0  0  0  0  0
    4.2064  -10.3242   18.3302 C   0  0  0  0  0  0  0  0  0  0  0  0
    9.6599   -4.1551   16.4796 N   0  0  0  0  0  0  0  0  0  0  0  0
    7.0644   -6.4612   15.7375 N   0  0  0  0  0  0  0  0  0  0  0  0
    5.3549   -9.6322   18.3190 C   0  0  0  0  0  0  0  0  0  0  0  0
   10.3704   -4.9638   18.6510 C   0  0  0  0  0  0  0  0  0  0  0  0
    5.5935   -8.6419   17.4234 C   0  0  0  0  0  0  0  0  0  0  0  0
   13.0726   -4.6648   23.3394 O   0  0  0  0  0  0  0  0  0  0  0  0
    8.5955   -6.0705   17.3996 C   0  0  0  0  0  0  0  0  0  0  0  0
    4.6223   -8.3832   16.5030 C   0  0  0  0  0  0  0  0  0  0  0  0
   12.4690   -5.2624   19.9024 C   0  0  0  0  0  0  0  0  0  0  0  0
    3.2548   -9.9919   17.4189 C   0  0  0  0  0  0  0  0  0  0  0  0
   12.4767   -4.7393   22.1790 C   0  0  0  0  0  0  0  0  0  0  0  0
    7.8593   -5.3772   15.3569 N   0  0  0  0  0  0  0  0  0  0  0  0
    7.4412   -6.9038   16.9283 C   0  0  0  0  0  0  0  0  0  0  0  0
  1 21  4  0
  1 23  4  0
  2  5  1  0
  2 13  4  0
  2 16  4  0
  3  6  4  0
  3  7  4  0
  4 13  4  0
  4 19  4  0
  4 24  4  0
  6 23  4  0
  7 16  1  0
  7 21  4  0
  8 18  1  0
  9 20  4  0
  9 22  4  0
 10 17  1  0
 10 25  1  0
 11 16  4  0
 11 19  4  0
 12 15  4  0
 12 22  4  0
 14 24  4  0
 14 25  4  0
 15 17  4  0
 17 20  4  0
 18 23  1  0
 19 25  4  0
M  END
$$$$

 Created by Python create_sdf_string function

 25 28  0  0  0  0  0  0  0  0999 V2000
   13.1533   -5.2399   21.0682 C   0  0  0  0  0  0  0  0  0  0  0  0
   10.4729   -4.0295   17.6135 C   0  0  0  0  0  0  0  0  0  0  0  0
   10.4789   -4.3641   20.9564 C   0  0  0  0  0  0  0  0  0  0  0  0
    8.7421   -5.1412   16.3650 C   0  0  0  0  0  0  0  0  0  0  0  0
   11.4353   -2.9204   17.8044 C   0  0  0  0  0  0  0  0  0  0  0  0
   11.1529   -4.3028   22.1277 C   0  0  0  0  0  0  0  0  0  0  0  0
   11.1290   -4.8502   19.8052 C   0  0  0  0  0  0  0  0  0  0  0  0
   12.4329   -4.2159   24.4224 C   0  0  0  0  0  0  0  0  0  0  0  0
    3.4740   -9.0387   16.5022 C   0  0  0  0  0  0  0  0  0  0  0  0
    6.8384   -7.9290   17.5282 N   0  0  0  0  0  0  0  0  0  0  0  0
    9.4126   -5.9853   18.4899 C   0  0  0  0  0  0  0  0  0  0  0  0
    4.2064  -10.3242   18.3302 C   0  0  0  0  0  0  0  0  0  0  0  0
    9.6599   -4.1551   16.4796 N   0  0  0  0  0  0  0  0  0  0  0  0
    7.0644   -6.4612   15.7375 N   0  0  0  0  0  0  0  0  0  0  0  0
    5.3549   -9.6322   18.3190 C   0  0  0  0  0  0  0  0  0  0  0  0
   10.3704   -4.9638   18.6510 C   0  0  0  0  0  0  0  0  0  0  0  0
    5.5935   -8.6419   17.4234 C   0  0  0  0  0  0  0  0  0  0  0  0
   13.0726   -4.6648   23.3394 O   0  0  0  0  0  0  0  0  0  0  0  0
    8.5955   -6.0705   17.3996 C   0  0  0  0  0  0  0  0  0  0  0  0
    4.6223   -8.3832   16.5030 C   0  0  0  0  0  0  0  0  0  0  0  0
   12.4690   -5.2624   19.9024 C   0  0  0  0  0  0  0  0  0  0  0  0
    3.2548   -9.9919   17.4189 C   0  0  0  0  0  0  0  0  0  0  0  0
   12.4767   -4.7393   22.1790 C   0  0  0  0  0  0  0  0  0  0  0  0
    7.8593   -5.3772   15.3569 N   0  0  0  0  0  0  0  0  0  0  0  0
    7.4412   -6.9038   16.9283 C   0  0  0  0  0  0  0  0  0  0  0  0
  1 21  4  0
  1 23  4  0
  2  5  1  0
  2 13  4  0
  2 16  4  0
  3  6  4  0
  3  7  4  0
  4 13  4  0
  4 19  4  0
  4 24  4  0
  6 23  4  0
  7 16  1  0
  7 21  4  0
  8 18  1  0
  9 20  4  0
  9 22  4  0
 10 17  1  0
 10 25  1  0
 11 16  4  0
 11 19  4  0
 12 15  4  0
 12 22  4  0
 14 24  4  0
 14 25  4  0
 15 17  4  0
 17 20  4  0
 18 23  1  0
 19 25  4  0
M  END
$$$$

 Created by Python create_sdf_string function

 25 28  0  0  0  0  0  0  0  0999 V2000
   13.1533   -5.2399   21.0682 C   0  0  0  0  0  0  0  0  0  0  0  0
   10.4729   -4.0295   17.6135 C   0  0  0  0  0  0  0  0  0  0  0  0
   10.4789   -4.3641   20.9564 C   0  0  0  0  0  0  0  0  0  0  0  0
    8.7421   -5.1412   16.3650 C   0  0  0  0  0  0  0  0  0  0  0  0
   11.4353   -2.9204   17.8044 C   0  0  0  0  0  0  0  0  0  0  0  0
   11.1529   -4.3028   22.1277 C   0  0  0  0  0  0  0  0  0  0  0  0
   11.1290   -4.8502   19.8052 C   0  0  0  0  0  0  0  0  0  0  0  0
   12.4329   -4.2159   24.4224 C   0  0  0  0  0  0  0  0  0  0  0  0
    3.4740   -9.0387   16.5022 C   0  0  0  0  0  0  0  0  0  0  0  0
    6.8384   -7.9290   17.5282 N   0  0  0  0  0  0  0  0  0  0  0  0
    9.4126   -5.9853   18.4899 C   0  0  0  0  0  0  0  0  0  0  0  0
    4.2064  -10.3242   18.3302 C   0  0  0  0  0  0  0  0  0  0  0  0
    9.6599   -4.1551   16.4796 N   0  0  0  0  0  0  0  0  0  0  0  0
    7.0644   -6.4612   15.7375 N   0  0  0  0  0  0  0  0  0  0  0  0
    5.3549   -9.6322   18.3190 C   0  0  0  0  0  0  0  0  0  0  0  0
   10.3704   -4.9638   18.6510 C   0  0  0  0  0  0  0  0  0  0  0  0
    5.5935   -8.6419   17.4234 C   0  0  0  0  0  0  0  0  0  0  0  0
   13.0726   -4.6648   23.3394 O   0  0  0  0  0  0  0  0  0  0  0  0
    8.5955   -6.0705   17.3996 C   0  0  0  0  0  0  0  0  0  0  0  0
    4.6223   -8.3832   16.5030 C   0  0  0  0  0  0  0  0  0  0  0  0
   12.4690   -5.2624   19.9024 C   0  0  0  0  0  0  0  0  0  0  0  0
    3.2548   -9.9919   17.4189 C   0  0  0  0  0  0  0  0  0  0  0  0
   12.4767   -4.7393   22.1790 C   0  0  0  0  0  0  0  0  0  0  0  0
    7.8593   -5.3772   15.3569 N   0  0  0  0  0  0  0  0  0  0  0  0
    7.4412   -6.9038   16.9283 C   0  0  0  0  0  0  0  0  0  0  0  0
  1 21  4  0
  1 23  4  0
  2  5  1  0
  2 13  4  0
  2 16  4  0
  3  6  4  0
  3  7  4  0
  4 13  4  0
  4 19  4  0
  4 24  4  0
  6 23  4  0
  7 16  1  0
  7 21  4  0
  8 18  1  0
  9 20  4  0
  9 22  4  0
 10 17  1  0
 10 25  1  0
 11 16  4  0
 11 19  4  0
 12 15  4  0
 12 22  4  0
 14 24  4  0
 14 25  4  0
 15 17  4  0
 17 20  4  0
 18 23  1  0
 19 25  4  0
M  END
$$$$

 Created by Python create_sdf_string function

 25 28  0  0  0  0  0  0  0  0999 V2000
   13.1533   -5.2399   21.0682 C   0  0  0  0  0  0  0  0  0  0  0  0
   10.4729   -4.0295   17.6135 C   0  0  0  0  0  0  0  0  0  0  0  0
   10.4789   -4.3641   20.9564 C   0  0  0  0  0  0  0  0  0  0  0  0
    8.7421   -5.1412   16.3650 C   0  0  0  0  0  0  0  0  0  0  0  0
   11.4353   -2.9204   17.8044 C   0  0  0  0  0  0  0  0  0  0  0  0
   11.1529   -4.3028   22.1277 C   0  0  0  0  0  0  0  0  0  0  0  0
   11.1290   -4.8502   19.8052 C   0  0  0  0  0  0  0  0  0  0  0  0
   12.4329   -4.2159   24.4224 C   0  0  0  0  0  0  0  0  0  0  0  0
    3.4740   -9.0387   16.5022 C   0  0  0  0  0  0  0  0  0  0  0  0
    6.8384   -7.9290   17.5282 N   0  0  0  0  0  0  0  0  0  0  0  0
    9.4126   -5.9853   18.4899 C   0  0  0  0  0  0  0  0  0  0  0  0
    4.2064  -10.3242   18.3302 C   0  0  0  0  0  0  0  0  0  0  0  0
    9.6599   -4.1551   16.4796 N   0  0  0  0  0  0  0  0  0  0  0  0
    7.0644   -6.4612   15.7375 N   0  0  0  0  0  0  0  0  0  0  0  0
    5.3549   -9.6322   18.3190 C   0  0  0  0  0  0  0  0  0  0  0  0
   10.3704   -4.9638   18.6510 C   0  0  0  0  0  0  0  0  0  0  0  0
    5.5935   -8.6419   17.4234 C   0  0  0  0  0  0  0  0  0  0  0  0
   13.0726   -4.6648   23.3394 O   0  0  0  0  0  0  0  0  0  0  0  0
    8.5955   -6.0705   17.3996 C   0  0  0  0  0  0  0  0  0  0  0  0
    4.6223   -8.3832   16.5030 C   0  0  0  0  0  0  0  0  0  0  0  0
   12.4690   -5.2624   19.9024 C   0  0  0  0  0  0  0  0  0  0  0  0
    3.2548   -9.9919   17.4189 C   0  0  0  0  0  0  0  0  0  0  0  0
   12.4767   -4.7393   22.1790 C   0  0  0  0  0  0  0  0  0  0  0  0
    7.8593   -5.3772   15.3569 N   0  0  0  0  0  0  0  0  0  0  0  0
    7.4412   -6.9038   16.9283 C   0  0  0  0  0  0  0  0  0  0  0  0
  1 21  4  0
  1 23  4  0
  2  5  1  0
  2 13  4  0
  2 16  4  0
  3  6  4  0
  3  7  4  0
  4 13  4  0
  4 19  4  0
  4 24  4  0
  6 23  4  0
  7 16  1  0
  7 21  4  0
  8 18  1  0
  9 20  4  0
  9 22  4  0
 10 17  1  0
 10 25  1  0
 11 16  4  0
 11 19  4  0
 12 15  4  0
 12 22  4  0
 14 24  4  0
 14 25  4  0
 15 17  4  0
 17 20  4  0
 18 23  1  0
 19 25  4  0
M  END
$$$$

 Created by Python create_sdf_string function

 25 28  0  0  0  0  0  0  0  0999 V2000
   13.1533   -5.2399   21.0682 C   0  0  0  0  0  0  0  0  0  0  0  0
   10.4729   -4.0295   17.6135 C   0  0  0  0  0  0  0  0  0  0  0  0
   10.4789   -4.3641   20.9564 C   0  0  0  0  0  0  0  0  0  0  0  0
    8.7421   -5.1412   16.3650 C   0  0  0  0  0  0  0  0  0  0  0  0
   11.4353   -2.9204   17.8044 C   0  0  0  0  0  0  0  0  0  0  0  0
   11.1529   -4.3028   22.1277 C   0  0  0  0  0  0  0  0  0  0  0  0
   11.1290   -4.8502   19.8052 C   0  0  0  0  0  0  0  0  0  0  0  0
   12.4329   -4.2159   24.4224 C   0  0  0  0  0  0  0  0  0  0  0  0
    3.4740   -9.0387   16.5022 C   0  0  0  0  0  0  0  0  0  0  0  0
    6.8384   -7.9290   17.5282 N   0  0  0  0  0  0  0  0  0  0  0  0
    9.4126   -5.9853   18.4899 C   0  0  0  0  0  0  0  0  0  0  0  0
    4.2064  -10.3242   18.3302 C   0  0  0  0  0  0  0  0  0  0  0  0
    9.6599   -4.1551   16.4796 N   0  0  0  0  0  0  0  0  0  0  0  0
    7.0644   -6.4612   15.7375 N   0  0  0  0  0  0  0  0  0  0  0  0
    5.3549   -9.6322   18.3190 C   0  0  0  0  0  0  0  0  0  0  0  0
   10.3704   -4.9638   18.6510 C   0  0  0  0  0  0  0  0  0  0  0  0
    5.5935   -8.6419   17.4234 C   0  0  0  0  0  0  0  0  0  0  0  0
   13.0726   -4.6648   23.3394 O   0  0  0  0  0  0  0  0  0  0  0  0
    8.5955   -6.0705   17.3996 C   0  0  0  0  0  0  0  0  0  0  0  0
    4.6223   -8.3832   16.5030 C   0  0  0  0  0  0  0  0  0  0  0  0
   12.4690   -5.2624   19.9024 C   0  0  0  0  0  0  0  0  0  0  0  0
    3.2548   -9.9919   17.4189 C   0  0  0  0  0  0  0  0  0  0  0  0
   12.4767   -4.7393   22.1790 C   0  0  0  0  0  0  0  0  0  0  0  0
    7.8593   -5.3772   15.3569 N   0  0  0  0  0  0  0  0  0  0  0  0
    7.4412   -6.9038   16.9283 C   0  0  0  0  0  0  0  0  0  0  0  0
  1 21  4  0
  1 23  4  0
  2  5  1  0
  2 13  4  0
  2 16  4  0
  3  6  4  0
  3  7  4  0
  4 13  4  0
  4 19  4  0
  4 24  4  0
  6 23  4  0
  7 16  1  0
  7 21  4  0
  8 18  1  0
  9 20  4  0
  9 22  4  0
 10 17  1  0
 10 25  1  0
 11 16  4  0
 11 19  4  0
 12 15  4  0
 12 22  4  0
 14 24  4  0
 14 25  4  0
 15 17  4  0
 17 20  4  0
 18 23  1  0
 19 25  4  0
M  END
$$$$

 Created by Python create_sdf_string function

 25 28  0  0  0  0  0  0  0  0999 V2000
   13.1533   -5.2399   21.0682 C   0  0  0  0  0  0  0  0  0  0  0  0
   10.4729   -4.0295   17.6135 C   0  0  0  0  0  0  0  0  0  0  0  0
   10.4789   -4.3641   20.9564 C   0  0  0  0  0  0  0  0  0  0  0  0
    8.7421   -5.1412   16.3650 C   0  0  0  0  0  0  0  0  0  0  0  0
   11.4353   -2.9204   17.8044 C   0  0  0  0  0  0  0  0  0  0  0  0
   11.1529   -4.3028   22.1277 C   0  0  0  0  0  0  0  0  0  0  0  0
   11.1290   -4.8502   19.8052 C   0  0  0  0  0  0  0  0  0  0  0  0
   12.4329   -4.2159   24.4224 C   0  0  0  0  0  0  0  0  0  0  0  0
    3.4740   -9.0387   16.5022 C   0  0  0  0  0  0  0  0  0  0  0  0
    6.8384   -7.9290   17.5282 N   0  0  0  0  0  0  0  0  0  0  0  0
    9.4126   -5.9853   18.4899 C   0  0  0  0  0  0  0  0  0  0  0  0
    4.2064  -10.3242   18.3302 C   0  0  0  0  0  0  0  0  0  0  0  0
    9.6599   -4.1551   16.4796 N   0  0  0  0  0  0  0  0  0  0  0  0
    7.0644   -6.4612   15.7375 N   0  0  0  0  0  0  0  0  0  0  0  0
    5.3549   -9.6322   18.3190 C   0  0  0  0  0  0  0  0  0  0  0  0
   10.3704   -4.9638   18.6510 C   0  0  0  0  0  0  0  0  0  0  0  0
    5.5935   -8.6419   17.4234 C   0  0  0  0  0  0  0  0  0  0  0  0
   13.0726   -4.6648   23.3394 O   0  0  0  0  0  0  0  0  0  0  0  0
    8.5955   -6.0705   17.3996 C   0  0  0  0  0  0  0  0  0  0  0  0
    4.6223   -8.3832   16.5030 C   0  0  0  0  0  0  0  0  0  0  0  0
   12.4690   -5.2624   19.9024 C   0  0  0  0  0  0  0  0  0  0  0  0
    3.2548   -9.9919   17.4189 C   0  0  0  0  0  0  0  0  0  0  0  0
   12.4767   -4.7393   22.1790 C   0  0  0  0  0  0  0  0  0  0  0  0
    7.8593   -5.3772   15.3569 N   0  0  0  0  0  0  0  0  0  0  0  0
    7.4412   -6.9038   16.9283 C   0  0  0  0  0  0  0  0  0  0  0  0
  1 21  4  0
  1 23  4  0
  2  5  1  0
  2 13  4  0
  2 16  4  0
  3  6  4  0
  3  7  4  0
  4 13  4  0
  4 19  4  0
  4 24  4  0
  6 23  4  0
  7 16  1  0
  7 21  4  0
  8 18  1  0
  9 20  4  0
  9 22  4  0
 10 17  1  0
 10 25  1  0
 11 16  4  0
 11 19  4  0
 12 15  4  0
 12 22  4  0
 14 24  4  0
 14 25  4  0
 15 17  4  0
 17 20  4  0
 18 23  1  0
 19 25  4  0
M  END
$$$$

 Created by Python create_sdf_string function

 25 28  0  0  0  0  0  0  0  0999 V2000
   13.1533   -5.2399   21.0682 C   0  0  0  0  0  0  0  0  0  0  0  0
   10.4729   -4.0295   17.6135 C   0  0  0  0  0  0  0  0  0  0  0  0
   10.4789   -4.3641   20.9564 C   0  0  0  0  0  0  0  0  0  0  0  0
    8.7421   -5.1412   16.3650 C   0  0  0  0  0  0  0  0  0  0  0  0
   11.4353   -2.9204   17.8044 C   0  0  0  0  0  0  0  0  0  0  0  0
   11.1529   -4.3028   22.1277 C   0  0  0  0  0  0  0  0  0  0  0  0
   11.1290   -4.8502   19.8052 C   0  0  0  0  0  0  0  0  0  0  0  0
   12.4329   -4.2159   24.4224 C   0  0  0  0  0  0  0  0  0  0  0  0
    3.4740   -9.0387   16.5022 C   0  0  0  0  0  0  0  0  0  0  0  0
    6.8384   -7.9290   17.5282 N   0  0  0  0  0  0  0  0  0  0  0  0
    9.4126   -5.9853   18.4899 C   0  0  0  0  0  0  0  0  0  0  0  0
    4.2064  -10.3242   18.3302 C   0  0  0  0  0  0  0  0  0  0  0  0
    9.6599   -4.1551   16.4796 N   0  0  0  0  0  0  0  0  0  0  0  0
    7.0644   -6.4612   15.7375 N   0  0  0  0  0  0  0  0  0  0  0  0
    5.3549   -9.6322   18.3190 C   0  0  0  0  0  0  0  0  0  0  0  0
   10.3704   -4.9638   18.6510 C   0  0  0  0  0  0  0  0  0  0  0  0
    5.5935   -8.6419   17.4234 C   0  0  0  0  0  0  0  0  0  0  0  0
   13.0726   -4.6648   23.3394 O   0  0  0  0  0  0  0  0  0  0  0  0
    8.5955   -6.0705   17.3996 C   0  0  0  0  0  0  0  0  0  0  0  0
    4.6223   -8.3832   16.5030 C   0  0  0  0  0  0  0  0  0  0  0  0
   12.4690   -5.2624   19.9024 C   0  0  0  0  0  0  0  0  0  0  0  0
    3.2548   -9.9919   17.4189 C   0  0  0  0  0  0  0  0  0  0  0  0
   12.4767   -4.7393   22.1790 C   0  0  0  0  0  0  0  0  0  0  0  0
    7.8593   -5.3772   15.3569 N   0  0  0  0  0  0  0  0  0  0  0  0
    7.4412   -6.9038   16.9283 C   0  0  0  0  0  0  0  0  0  0  0  0
  1 21  4  0
  1 23  4  0
  2  5  1  0
  2 13  4  0
  2 16  4  0
  3  6  4  0
  3  7  4  0
  4 13  4  0
  4 19  4  0
  4 24  4  0
  6 23  4  0
  7 16  1  0
  7 21  4  0
  8 18  1  0
  9 20  4  0
  9 22  4  0
 10 17  1  0
 10 25  1  0
 11 16  4  0
 11 19  4  0
 12 15  4  0
 12 22  4  0
 14 24  4  0
 14 25  4  0
 15 17  4  0
 17 20  4  0
 18 23  1  0
 19 25  4  0
M  END
$$$$

 Created by Python create_sdf_string function

 25 28  0  0  0  0  0  0  0  0999 V2000
   13.1533   -5.2399   21.0682 C   0  0  0  0  0  0  0  0  0  0  0  0
   10.4729   -4.0295   17.6135 C   0  0  0  0  0  0  0  0  0  0  0  0
   10.4789   -4.3641   20.9564 C   0  0  0  0  0  0  0  0  0  0  0  0
    8.7421   -5.1412   16.3650 C   0  0  0  0  0  0  0  0  0  0  0  0
   11.4353   -2.9204   17.8044 C   0  0  0  0  0  0  0  0  0  0  0  0
   11.1529   -4.3028   22.1277 C   0  0  0  0  0  0  0  0  0  0  0  0
   11.1290   -4.8502   19.8052 C   0  0  0  0  0  0  0  0  0  0  0  0
   12.4329   -4.2159   24.4224 C   0  0  0  0  0  0  0  0  0  0  0  0
    3.4740   -9.0387   16.5022 C   0  0  0  0  0  0  0  0  0  0  0  0
    6.8384   -7.9290   17.5282 N   0  0  0  0  0  0  0  0  0  0  0  0
    9.4126   -5.9853   18.4899 C   0  0  0  0  0  0  0  0  0  0  0  0
    4.2064  -10.3242   18.3302 C   0  0  0  0  0  0  0  0  0  0  0  0
    9.6599   -4.1551   16.4796 N   0  0  0  0  0  0  0  0  0  0  0  0
    7.0644   -6.4612   15.7375 N   0  0  0  0  0  0  0  0  0  0  0  0
    5.3549   -9.6322   18.3190 C   0  0  0  0  0  0  0  0  0  0  0  0
   10.3704   -4.9638   18.6510 C   0  0  0  0  0  0  0  0  0  0  0  0
    5.5935   -8.6419   17.4234 C   0  0  0  0  0  0  0  0  0  0  0  0
   13.0726   -4.6648   23.3394 O   0  0  0  0  0  0  0  0  0  0  0  0
    8.5955   -6.0705   17.3996 C   0  0  0  0  0  0  0  0  0  0  0  0
    4.6223   -8.3832   16.5030 C   0  0  0  0  0  0  0  0  0  0  0  0
   12.4690   -5.2624   19.9024 C   0  0  0  0  0  0  0  0  0  0  0  0
    3.2548   -9.9919   17.4189 C   0  0  0  0  0  0  0  0  0  0  0  0
   12.4767   -4.7393   22.1790 C   0  0  0  0  0  0  0  0  0  0  0  0
    7.8593   -5.3772   15.3569 N   0  0  0  0  0  0  0  0  0  0  0  0
    7.4412   -6.9038   16.9283 C   0  0  0  0  0  0  0  0  0  0  0  0
  1 21  4  0
  1 23  4  0
  2  5  1  0
  2 13  4  0
  2 16  4  0
  3  6  4  0
  3  7  4  0
  4 13  4  0
  4 19  4  0
  4 24  4  0
  6 23  4  0
  7 16  1  0
  7 21  4  0
  8 18  1  0
  9 20  4  0
  9 22  4  0
 10 17  1  0
 10 25  1  0
 11 16  4  0
 11 19  4  0
 12 15  4  0
 12 22  4  0
 14 24  4  0
 14 25  4  0
 15 17  4  0
 17 20  4  0
 18 23  1  0
 19 25  4  0
M  END
$$$$

 Created by Python create_sdf_string function

 25 28  0  0  0  0  0  0  0  0999 V2000
   13.1533   -5.2399   21.0682 C   0  0  0  0  0  0  0  0  0  0  0  0
   10.4729   -4.0295   17.6135 C   0  0  0  0  0  0  0  0  0  0  0  0
   10.4789   -4.3641   20.9564 C   0  0  0  0  0  0  0  0  0  0  0  0
    8.7421   -5.1412   16.3650 C   0  0  0  0  0  0  0  0  0  0  0  0
   11.4353   -2.9204   17.8044 C   0  0  0  0  0  0  0  0  0  0  0  0
   11.1529   -4.3028   22.1277 C   0  0  0  0  0  0  0  0  0  0  0  0
   11.1290   -4.8502   19.8052 C   0  0  0  0  0  0  0  0  0  0  0  0
   12.4329   -4.2159   24.4224 C   0  0  0  0  0  0  0  0  0  0  0  0
    3.4740   -9.0387   16.5022 C   0  0  0  0  0  0  0  0  0  0  0  0
    6.8384   -7.9290   17.5282 N   0  0  0  0  0  0  0  0  0  0  0  0
    9.4126   -5.9853   18.4899 C   0  0  0  0  0  0  0  0  0  0  0  0
    4.2064  -10.3242   18.3302 C   0  0  0  0  0  0  0  0  0  0  0  0
    9.6599   -4.1551   16.4796 N   0  0  0  0  0  0  0  0  0  0  0  0
    7.0644   -6.4612   15.7375 N   0  0  0  0  0  0  0  0  0  0  0  0
    5.3549   -9.6322   18.3190 C   0  0  0  0  0  0  0  0  0  0  0  0
   10.3704   -4.9638   18.6510 C   0  0  0  0  0  0  0  0  0  0  0  0
    5.5935   -8.6419   17.4234 C   0  0  0  0  0  0  0  0  0  0  0  0
   13.0726   -4.6648   23.3394 O   0  0  0  0  0  0  0  0  0  0  0  0
    8.5955   -6.0705   17.3996 C   0  0  0  0  0  0  0  0  0  0  0  0
    4.6223   -8.3832   16.5030 C   0  0  0  0  0  0  0  0  0  0  0  0
   12.4690   -5.2624   19.9024 C   0  0  0  0  0  0  0  0  0  0  0  0
    3.2548   -9.9919   17.4189 C   0  0  0  0  0  0  0  0  0  0  0  0
   12.4767   -4.7393   22.1790 C   0  0  0  0  0  0  0  0  0  0  0  0
    7.8593   -5.3772   15.3569 N   0  0  0  0  0  0  0  0  0  0  0  0
    7.4412   -6.9038   16.9283 C   0  0  0  0  0  0  0  0  0  0  0  0
  1 21  4  0
  1 23  4  0
  2  5  1  0
  2 13  4  0
  2 16  4  0
  3  6  4  0
  3  7  4  0
  4 13  4  0
  4 19  4  0
  4 24  4  0
  6 23  4  0
  7 16  1  0
  7 21  4  0
  8 18  1  0
  9 20  4  0
  9 22  4  0
 10 17  1  0
 10 25  1  0
 11 16  4  0
 11 19  4  0
 12 15  4  0
 12 22  4  0
 14 24  4  0
 14 25  4  0
 15 17  4  0
 17 20  4  0
 18 23  1  0
 19 25  4  0
M  END
$$$$

 Created by Python create_sdf_string function

 25 28  0  0  0  0  0  0  0  0999 V2000
   13.1533   -5.2399   21.0682 C   0  0  0  0  0  0  0  0  0  0  0  0
   10.4729   -4.0295   17.6135 C   0  0  0  0  0  0  0  0  0  0  0  0
   10.4789   -4.3641   20.9564 C   0  0  0  0  0  0  0  0  0  0  0  0
    8.7421   -5.1412   16.3650 C   0  0  0  0  0  0  0  0  0  0  0  0
   11.4353   -2.9204   17.8044 C   0  0  0  0  0  0  0  0  0  0  0  0
   11.1529   -4.3028   22.1277 C   0  0  0  0  0  0  0  0  0  0  0  0
   11.1290   -4.8502   19.8052 C   0  0  0  0  0  0  0  0  0  0  0  0
   12.4329   -4.2159   24.4224 C   0  0  0  0  0  0  0  0  0  0  0  0
    3.4740   -9.0387   16.5022 C   0  0  0  0  0  0  0  0  0  0  0  0
    6.8384   -7.9290   17.5282 N   0  0  0  0  0  0  0  0  0  0  0  0
    9.4126   -5.9853   18.4899 C   0  0  0  0  0  0  0  0  0  0  0  0
    4.2064  -10.3242   18.3302 C   0  0  0  0  0  0  0  0  0  0  0  0
    9.6599   -4.1551   16.4796 N   0  0  0  0  0  0  0  0  0  0  0  0
    7.0644   -6.4612   15.7375 N   0  0  0  0  0  0  0  0  0  0  0  0
    5.3549   -9.6322   18.3190 C   0  0  0  0  0  0  0  0  0  0  0  0
   10.3704   -4.9638   18.6510 C   0  0  0  0  0  0  0  0  0  0  0  0
    5.5935   -8.6419   17.4234 C   0  0  0  0  0  0  0  0  0  0  0  0
   13.0726   -4.6648   23.3394 O   0  0  0  0  0  0  0  0  0  0  0  0
    8.5955   -6.0705   17.3996 C   0  0  0  0  0  0  0  0  0  0  0  0
    4.6223   -8.3832   16.5030 C   0  0  0  0  0  0  0  0  0  0  0  0
   12.4690   -5.2624   19.9024 C   0  0  0  0  0  0  0  0  0  0  0  0
    3.2548   -9.9919   17.4189 C   0  0  0  0  0  0  0  0  0  0  0  0
   12.4767   -4.7393   22.1790 C   0  0  0  0  0  0  0  0  0  0  0  0
    7.8593   -5.3772   15.3569 N   0  0  0  0  0  0  0  0  0  0  0  0
    7.4412   -6.9038   16.9283 C   0  0  0  0  0  0  0  0  0  0  0  0
  1 21  4  0
  1 23  4  0
  2  5  1  0
  2 13  4  0
  2 16  4  0
  3  6  4  0
  3  7  4  0
  4 13  4  0
  4 19  4  0
  4 24  4  0
  6 23  4  0
  7 16  1  0
  7 21  4  0
  8 18  1  0
  9 20  4  0
  9 22  4  0
 10 17  1  0
 10 25  1  0
 11 16  4  0
 11 19  4  0
 12 15  4  0
 12 22  4  0
 14 24  4  0
 14 25  4  0
 15 17  4  0
 17 20  4  0
 18 23  1  0
 19 25  4  0
M  END
$$$$

 Created by Python create_sdf_string function

 25 28  0  0  0  0  0  0  0  0999 V2000
   13.1533   -5.2399   21.0682 C   0  0  0  0  0  0  0  0  0  0  0  0
   10.4729   -4.0295   17.6135 C   0  0  0  0  0  0  0  0  0  0  0  0
   10.4789   -4.3641   20.9564 C   0  0  0  0  0  0  0  0  0  0  0  0
    8.7421   -5.1412   16.3650 C   0  0  0  0  0  0  0  0  0  0  0  0
   11.4353   -2.9204   17.8044 C   0  0  0  0  0  0  0  0  0  0  0  0
   11.1529   -4.3028   22.1277 C   0  0  0  0  0  0  0  0  0  0  0  0
   11.1290   -4.8502   19.8052 C   0  0  0  0  0  0  0  0  0  0  0  0
   12.4329   -4.2159   24.4224 C   0  0  0  0  0  0  0  0  0  0  0  0
    3.4740   -9.0387   16.5022 C   0  0  0  0  0  0  0  0  0  0  0  0
    6.8384   -7.9290   17.5282 N   0  0  0  0  0  0  0  0  0  0  0  0
    9.4126   -5.9853   18.4899 C   0  0  0  0  0  0  0  0  0  0  0  0
    4.2064  -10.3242   18.3302 C   0  0  0  0  0  0  0  0  0  0  0  0
    9.6599   -4.1551   16.4796 N   0  0  0  0  0  0  0  0  0  0  0  0
    7.0644   -6.4612   15.7375 N   0  0  0  0  0  0  0  0  0  0  0  0
    5.3549   -9.6322   18.3190 C   0  0  0  0  0  0  0  0  0  0  0  0
   10.3704   -4.9638   18.6510 C   0  0  0  0  0  0  0  0  0  0  0  0
    5.5935   -8.6419   17.4234 C   0  0  0  0  0  0  0  0  0  0  0  0
   13.0726   -4.6648   23.3394 O   0  0  0  0  0  0  0  0  0  0  0  0
    8.5955   -6.0705   17.3996 C   0  0  0  0  0  0  0  0  0  0  0  0
    4.6223   -8.3832   16.5030 C   0  0  0  0  0  0  0  0  0  0  0  0
   12.4690   -5.2624   19.9024 C   0  0  0  0  0  0  0  0  0  0  0  0
    3.2548   -9.9919   17.4189 C   0  0  0  0  0  0  0  0  0  0  0  0
   12.4767   -4.7393   22.1790 C   0  0  0  0  0  0  0  0  0  0  0  0
    7.8593   -5.3772   15.3569 N   0  0  0  0  0  0  0  0  0  0  0  0
    7.4412   -6.9038   16.9283 C   0  0  0  0  0  0  0  0  0  0  0  0
  1 21  4  0
  1 23  4  0
  2  5  1  0
  2 13  4  0
  2 16  4  0
  3  6  4  0
  3  7  4  0
  4 13  4  0
  4 19  4  0
  4 24  4  0
  6 23  4  0
  7 16  1  0
  7 21  4  0
  8 18  1  0
  9 20  4  0
  9 22  4  0
 10 17  1  0
 10 25  1  0
 11 16  4  0
 11 19  4  0
 12 15  4  0
 12 22  4  0
 14 24  4  0
 14 25  4  0
 15 17  4  0
 17 20  4  0
 18 23  1  0
 19 25  4  0
M  END
$$$$

 Created by Python create_sdf_string function

 25 28  0  0  0  0  0  0  0  0999 V2000
   13.1533   -5.2399   21.0682 C   0  0  0  0  0  0  0  0  0  0  0  0
   10.4729   -4.0295   17.6135 C   0  0  0  0  0  0  0  0  0  0  0  0
   10.4789   -4.3641   20.9564 C   0  0  0  0  0  0  0  0  0  0  0  0
    8.7421   -5.1412   16.3650 C   0  0  0  0  0  0  0  0  0  0  0  0
   11.4353   -2.9204   17.8044 C   0  0  0  0  0  0  0  0  0  0  0  0
   11.1529   -4.3028   22.1277 C   0  0  0  0  0  0  0  0  0  0  0  0
   11.1290   -4.8502   19.8052 C   0  0  0  0  0  0  0  0  0  0  0  0
   12.4329   -4.2159   24.4224 C   0  0  0  0  0  0  0  0  0  0  0  0
    3.4740   -9.0387   16.5022 C   0  0  0  0  0  0  0  0  0  0  0  0
    6.8384   -7.9290   17.5282 N   0  0  0  0  0  0  0  0  0  0  0  0
    9.4126   -5.9853   18.4899 C   0  0  0  0  0  0  0  0  0  0  0  0
    4.2064  -10.3242   18.3302 C   0  0  0  0  0  0  0  0  0  0  0  0
    9.6599   -4.1551   16.4796 N   0  0  0  0  0  0  0  0  0  0  0  0
    7.0644   -6.4612   15.7375 N   0  0  0  0  0  0  0  0  0  0  0  0
    5.3549   -9.6322   18.3190 C   0  0  0  0  0  0  0  0  0  0  0  0
   10.3704   -4.9638   18.6510 C   0  0  0  0  0  0  0  0  0  0  0  0
    5.5935   -8.6419   17.4234 C   0  0  0  0  0  0  0  0  0  0  0  0
   13.0726   -4.6648   23.3394 O   0  0  0  0  0  0  0  0  0  0  0  0
    8.5955   -6.0705   17.3996 C   0  0  0  0  0  0  0  0  0  0  0  0
    4.6223   -8.3832   16.5030 C   0  0  0  0  0  0  0  0  0  0  0  0
   12.4690   -5.2624   19.9024 C   0  0  0  0  0  0  0  0  0  0  0  0
    3.2548   -9.9919   17.4189 C   0  0  0  0  0  0  0  0  0  0  0  0
   12.4767   -4.7393   22.1790 C   0  0  0  0  0  0  0  0  0  0  0  0
    7.8593   -5.3772   15.3569 N   0  0  0  0  0  0  0  0  0  0  0  0
    7.4412   -6.9038   16.9283 C   0  0  0  0  0  0  0  0  0  0  0  0
  1 21  4  0
  1 23  4  0
  2  5  1  0
  2 13  4  0
  2 16  4  0
  3  6  4  0
  3  7  4  0
  4 13  4  0
  4 19  4  0
  4 24  4  0
  6 23  4  0
  7 16  1  0
  7 21  4  0
  8 18  1  0
  9 20  4  0
  9 22  4  0
 10 17  1  0
 10 25  1  0
 11 16  4  0
 11 19  4  0
 12 15  4  0
 12 22  4  0
 14 24  4  0
 14 25  4  0
 15 17  4  0
 17 20  4  0
 18 23  1  0
 19 25  4  0
M  END
$$$$

 Created by Python create_sdf_string function

 25 28  0  0  0  0  0  0  0  0999 V2000
   13.1533   -5.2399   21.0682 C   0  0  0  0  0  0  0  0  0  0  0  0
   10.4729   -4.0295   17.6135 C   0  0  0  0  0  0  0  0  0  0  0  0
   10.4789   -4.3641   20.9564 C   0  0  0  0  0  0  0  0  0  0  0  0
    8.7421   -5.1412   16.3650 C   0  0  0  0  0  0  0  0  0  0  0  0
   11.4353   -2.9204   17.8044 C   0  0  0  0  0  0  0  0  0  0  0  0
   11.1529   -4.3028   22.1277 C   0  0  0  0  0  0  0  0  0  0  0  0
   11.1290   -4.8502   19.8052 C   0  0  0  0  0  0  0  0  0  0  0  0
   12.4329   -4.2159   24.4224 C   0  0  0  0  0  0  0  0  0  0  0  0
    3.4740   -9.0387   16.5022 C   0  0  0  0  0  0  0  0  0  0  0  0
    6.8384   -7.9290   17.5282 N   0  0  0  0  0  0  0  0  0  0  0  0
    9.4126   -5.9853   18.4899 C   0  0  0  0  0  0  0  0  0  0  0  0
    4.2064  -10.3242   18.3302 C   0  0  0  0  0  0  0  0  0  0  0  0
    9.6599   -4.1551   16.4796 N   0  0  0  0  0  0  0  0  0  0  0  0
    7.0644   -6.4612   15.7375 N   0  0  0  0  0  0  0  0  0  0  0  0
    5.3549   -9.6322   18.3190 C   0  0  0  0  0  0  0  0  0  0  0  0
   10.3704   -4.9638   18.6510 C   0  0  0  0  0  0  0  0  0  0  0  0
    5.5935   -8.6419   17.4234 C   0  0  0  0  0  0  0  0  0  0  0  0
   13.0726   -4.6648   23.3394 O   0  0  0  0  0  0  0  0  0  0  0  0
    8.5955   -6.0705   17.3996 C   0  0  0  0  0  0  0  0  0  0  0  0
    4.6223   -8.3832   16.5030 C   0  0  0  0  0  0  0  0  0  0  0  0
   12.4690   -5.2624   19.9024 C   0  0  0  0  0  0  0  0  0  0  0  0
    3.2548   -9.9919   17.4189 C   0  0  0  0  0  0  0  0  0  0  0  0
   12.4767   -4.7393   22.1790 C   0  0  0  0  0  0  0  0  0  0  0  0
    7.8593   -5.3772   15.3569 N   0  0  0  0  0  0  0  0  0  0  0  0
    7.4412   -6.9038   16.9283 C   0  0  0  0  0  0  0  0  0  0  0  0
  1 21  4  0
  1 23  4  0
  2  5  1  0
  2 13  4  0
  2 16  4  0
  3  6  4  0
  3  7  4  0
  4 13  4  0
  4 19  4  0
  4 24  4  0
  6 23  4  0
  7 16  1  0
  7 21  4  0
  8 18  1  0
  9 20  4  0
  9 22  4  0
 10 17  1  0
 10 25  1  0
 11 16  4  0
 11 19  4  0
 12 15  4  0
 12 22  4  0
 14 24  4  0
 14 25  4  0
 15 17  4  0
 17 20  4  0
 18 23  1  0
 19 25  4  0
M  END
$$$$

 Created by Python create_sdf_string function

 25 28  0  0  0  0  0  0  0  0999 V2000
   13.1533   -5.2399   21.0682 C   0  0  0  0  0  0  0  0  0  0  0  0
   10.4729   -4.0295   17.6135 C   0  0  0  0  0  0  0  0  0  0  0  0
   10.4789   -4.3641   20.9564 C   0  0  0  0  0  0  0  0  0  0  0  0
    8.7421   -5.1412   16.3650 C   0  0  0  0  0  0  0  0  0  0  0  0
   11.4353   -2.9204   17.8044 C   0  0  0  0  0  0  0  0  0  0  0  0
   11.1529   -4.3028   22.1277 C   0  0  0  0  0  0  0  0  0  0  0  0
   11.1290   -4.8502   19.8052 C   0  0  0  0  0  0  0  0  0  0  0  0
   12.4329   -4.2159   24.4224 C   0  0  0  0  0  0  0  0  0  0  0  0
    3.4740   -9.0387   16.5022 C   0  0  0  0  0  0  0  0  0  0  0  0
    6.8384   -7.9290   17.5282 N   0  0  0  0  0  0  0  0  0  0  0  0
    9.4126   -5.9853   18.4899 C   0  0  0  0  0  0  0  0  0  0  0  0
    4.2064  -10.3242   18.3302 C   0  0  0  0  0  0  0  0  0  0  0  0
    9.6599   -4.1551   16.4796 N   0  0  0  0  0  0  0  0  0  0  0  0
    7.0644   -6.4612   15.7375 N   0  0  0  0  0  0  0  0  0  0  0  0
    5.3549   -9.6322   18.3190 C   0  0  0  0  0  0  0  0  0  0  0  0
   10.3704   -4.9638   18.6510 C   0  0  0  0  0  0  0  0  0  0  0  0
    5.5935   -8.6419   17.4234 C   0  0  0  0  0  0  0  0  0  0  0  0
   13.0726   -4.6648   23.3394 O   0  0  0  0  0  0  0  0  0  0  0  0
    8.5955   -6.0705   17.3996 C   0  0  0  0  0  0  0  0  0  0  0  0
    4.6223   -8.3832   16.5030 C   0  0  0  0  0  0  0  0  0  0  0  0
   12.4690   -5.2624   19.9024 C   0  0  0  0  0  0  0  0  0  0  0  0
    3.2548   -9.9919   17.4189 C   0  0  0  0  0  0  0  0  0  0  0  0
   12.4767   -4.7393   22.1790 C   0  0  0  0  0  0  0  0  0  0  0  0
    7.8593   -5.3772   15.3569 N   0  0  0  0  0  0  0  0  0  0  0  0
    7.4412   -6.9038   16.9283 C   0  0  0  0  0  0  0  0  0  0  0  0
  1 21  4  0
  1 23  4  0
  2  5  1  0
  2 13  4  0
  2 16  4  0
  3  6  4  0
  3  7  4  0
  4 13  4  0
  4 19  4  0
  4 24  4  0
  6 23  4  0
  7 16  1  0
  7 21  4  0
  8 18  1  0
  9 20  4  0
  9 22  4  0
 10 17  1  0
 10 25  1  0
 11 16  4  0
 11 19  4  0
 12 15  4  0
 12 22  4  0
 14 24  4  0
 14 25  4  0
 15 17  4  0
 17 20  4  0
 18 23  1  0
 19 25  4  0
M  END
$$$$

 Created by Python create_sdf_string function

 25 28  0  0  0  0  0  0  0  0999 V2000
   13.1533   -5.2399   21.0682 C   0  0  0  0  0  0  0  0  0  0  0  0
   10.4729   -4.0295   17.6135 C   0  0  0  0  0  0  0  0  0  0  0  0
   10.4789   -4.3641   20.9564 C   0  0  0  0  0  0  0  0  0  0  0  0
    8.7421   -5.1412   16.3650 C   0  0  0  0  0  0  0  0  0  0  0  0
   11.4353   -2.9204   17.8044 C   0  0  0  0  0  0  0  0  0  0  0  0
   11.1529   -4.3028   22.1277 C   0  0  0  0  0  0  0  0  0  0  0  0
   11.1290   -4.8502   19.8052 C   0  0  0  0  0  0  0  0  0  0  0  0
   12.4329   -4.2159   24.4224 C   0  0  0  0  0  0  0  0  0  0  0  0
    3.4740   -9.0387   16.5022 C   0  0  0  0  0  0  0  0  0  0  0  0
    6.8384   -7.9290   17.5282 N   0  0  0  0  0  0  0  0  0  0  0  0
    9.4126   -5.9853   18.4899 C   0  0  0  0  0  0  0  0  0  0  0  0
    4.2064  -10.3242   18.3302 C   0  0  0  0  0  0  0  0  0  0  0  0
    9.6599   -4.1551   16.4796 N   0  0  0  0  0  0  0  0  0  0  0  0
    7.0644   -6.4612   15.7375 N   0  0  0  0  0  0  0  0  0  0  0  0
    5.3549   -9.6322   18.3190 C   0  0  0  0  0  0  0  0  0  0  0  0
   10.3704   -4.9638   18.6510 C   0  0  0  0  0  0  0  0  0  0  0  0
    5.5935   -8.6419   17.4234 C   0  0  0  0  0  0  0  0  0  0  0  0
   13.0726   -4.6648   23.3394 O   0  0  0  0  0  0  0  0  0  0  0  0
    8.5955   -6.0705   17.3996 C   0  0  0  0  0  0  0  0  0  0  0  0
    4.6223   -8.3832   16.5030 C   0  0  0  0  0  0  0  0  0  0  0  0
   12.4690   -5.2624   19.9024 C   0  0  0  0  0  0  0  0  0  0  0  0
    3.2548   -9.9919   17.4189 C   0  0  0  0  0  0  0  0  0  0  0  0
   12.4767   -4.7393   22.1790 C   0  0  0  0  0  0  0  0  0  0  0  0
    7.8593   -5.3772   15.3569 N   0  0  0  0  0  0  0  0  0  0  0  0
    7.4412   -6.9038   16.9283 C   0  0  0  0  0  0  0  0  0  0  0  0
  1 21  4  0
  1 23  4  0
  2  5  1  0
  2 13  4  0
  2 16  4  0
  3  6  4  0
  3  7  4  0
  4 13  4  0
  4 19  4  0
  4 24  4  0
  6 23  4  0
  7 16  1  0
  7 21  4  0
  8 18  1  0
  9 20  4  0
  9 22  4  0
 10 17  1  0
 10 25  1  0
 11 16  4  0
 11 19  4  0
 12 15  4  0
 12 22  4  0
 14 24  4  0
 14 25  4  0
 15 17  4  0
 17 20  4  0
 18 23  1  0
 19 25  4  0
M  END
$$$$

 Created by Python create_sdf_string function

 25 28  0  0  0  0  0  0  0  0999 V2000
   13.1533   -5.2399   21.0682 C   0  0  0  0  0  0  0  0  0  0  0  0
   10.4729   -4.0295   17.6135 C   0  0  0  0  0  0  0  0  0  0  0  0
   10.4789   -4.3641   20.9564 C   0  0  0  0  0  0  0  0  0  0  0  0
    8.7421   -5.1412   16.3650 C   0  0  0  0  0  0  0  0  0  0  0  0
   11.4353   -2.9204   17.8044 C   0  0  0  0  0  0  0  0  0  0  0  0
   11.1529   -4.3028   22.1277 C   0  0  0  0  0  0  0  0  0  0  0  0
   11.1290   -4.8502   19.8052 C   0  0  0  0  0  0  0  0  0  0  0  0
   12.4329   -4.2159   24.4224 C   0  0  0  0  0  0  0  0  0  0  0  0
    3.4740   -9.0387   16.5022 C   0  0  0  0  0  0  0  0  0  0  0  0
    6.8384   -7.9290   17.5282 N   0  0  0  0  0  0  0  0  0  0  0  0
    9.4126   -5.9853   18.4899 C   0  0  0  0  0  0  0  0  0  0  0  0
    4.2064  -10.3242   18.3302 C   0  0  0  0  0  0  0  0  0  0  0  0
    9.6599   -4.1551   16.4796 N   0  0  0  0  0  0  0  0  0  0  0  0
    7.0644   -6.4612   15.7375 N   0  0  0  0  0  0  0  0  0  0  0  0
    5.3549   -9.6322   18.3190 C   0  0  0  0  0  0  0  0  0  0  0  0
   10.3704   -4.9638   18.6510 C   0  0  0  0  0  0  0  0  0  0  0  0
    5.5935   -8.6419   17.4234 C   0  0  0  0  0  0  0  0  0  0  0  0
   13.0726   -4.6648   23.3394 O   0  0  0  0  0  0  0  0  0  0  0  0
    8.5955   -6.0705   17.3996 C   0  0  0  0  0  0  0  0  0  0  0  0
    4.6223   -8.3832   16.5030 C   0  0  0  0  0  0  0  0  0  0  0  0
   12.4690   -5.2624   19.9024 C   0  0  0  0  0  0  0  0  0  0  0  0
    3.2548   -9.9919   17.4189 C   0  0  0  0  0  0  0  0  0  0  0  0
   12.4767   -4.7393   22.1790 C   0  0  0  0  0  0  0  0  0  0  0  0
    7.8593   -5.3772   15.3569 N   0  0  0  0  0  0  0  0  0  0  0  0
    7.4412   -6.9038   16.9283 C   0  0  0  0  0  0  0  0  0  0  0  0
  1 21  4  0
  1 23  4  0
  2  5  1  0
  2 13  4  0
  2 16  4  0
  3  6  4  0
  3  7  4  0
  4 13  4  0
  4 19  4  0
  4 24  4  0
  6 23  4  0
  7 16  1  0
  7 21  4  0
  8 18  1  0
  9 20  4  0
  9 22  4  0
 10 17  1  0
 10 25  1  0
 11 16  4  0
 11 19  4  0
 12 15  4  0
 12 22  4  0
 14 24  4  0
 14 25  4  0
 15 17  4  0
 17 20  4  0
 18 23  1  0
 19 25  4  0
M  END
$$$$

 Created by Python create_sdf_string function

 25 28  0  0  0  0  0  0  0  0999 V2000
   13.1533   -5.2399   21.0682 C   0  0  0  0  0  0  0  0  0  0  0  0
   10.4729   -4.0295   17.6135 C   0  0  0  0  0  0  0  0  0  0  0  0
   10.4789   -4.3641   20.9564 C   0  0  0  0  0  0  0  0  0  0  0  0
    8.7421   -5.1412   16.3650 C   0  0  0  0  0  0  0  0  0  0  0  0
   11.4353   -2.9204   17.8044 C   0  0  0  0  0  0  0  0  0  0  0  0
   11.1529   -4.3028   22.1277 C   0  0  0  0  0  0  0  0  0  0  0  0
   11.1290   -4.8502   19.8052 C   0  0  0  0  0  0  0  0  0  0  0  0
   12.4329   -4.2159   24.4224 C   0  0  0  0  0  0  0  0  0  0  0  0
    3.4740   -9.0387   16.5022 C   0  0  0  0  0  0  0  0  0  0  0  0
    6.8384   -7.9290   17.5282 N   0  0  0  0  0  0  0  0  0  0  0  0
    9.4126   -5.9853   18.4899 C   0  0  0  0  0  0  0  0  0  0  0  0
    4.2064  -10.3242   18.3302 C   0  0  0  0  0  0  0  0  0  0  0  0
    9.6599   -4.1551   16.4796 N   0  0  0  0  0  0  0  0  0  0  0  0
    7.0644   -6.4612   15.7375 N   0  0  0  0  0  0  0  0  0  0  0  0
    5.3549   -9.6322   18.3190 C   0  0  0  0  0  0  0  0  0  0  0  0
   10.3704   -4.9638   18.6510 C   0  0  0  0  0  0  0  0  0  0  0  0
    5.5935   -8.6419   17.4234 C   0  0  0  0  0  0  0  0  0  0  0  0
   13.0726   -4.6648   23.3394 O   0  0  0  0  0  0  0  0  0  0  0  0
    8.5955   -6.0705   17.3996 C   0  0  0  0  0  0  0  0  0  0  0  0
    4.6223   -8.3832   16.5030 C   0  0  0  0  0  0  0  0  0  0  0  0
   12.4690   -5.2624   19.9024 C   0  0  0  0  0  0  0  0  0  0  0  0
    3.2548   -9.9919   17.4189 C   0  0  0  0  0  0  0  0  0  0  0  0
   12.4767   -4.7393   22.1790 C   0  0  0  0  0  0  0  0  0  0  0  0
    7.8593   -5.3772   15.3569 N   0  0  0  0  0  0  0  0  0  0  0  0
    7.4412   -6.9038   16.9283 C   0  0  0  0  0  0  0  0  0  0  0  0
  1 21  4  0
  1 23  4  0
  2  5  1  0
  2 13  4  0
  2 16  4  0
  3  6  4  0
  3  7  4  0
  4 13  4  0
  4 19  4  0
  4 24  4  0
  6 23  4  0
  7 16  1  0
  7 21  4  0
  8 18  1  0
  9 20  4  0
  9 22  4  0
 10 17  1  0
 10 25  1  0
 11 16  4  0
 11 19  4  0
 12 15  4  0
 12 22  4  0
 14 24  4  0
 14 25  4  0
 15 17  4  0
 17 20  4  0
 18 23  1  0
 19 25  4  0
M  END
$$$$

 Created by Python create_sdf_string function

 25 28  0  0  0  0  0  0  0  0999 V2000
   13.1533   -5.2399   21.0682 C   0  0  0  0  0  0  0  0  0  0  0  0
   10.4729   -4.0295   17.6135 C   0  0  0  0  0  0  0  0  0  0  0  0
   10.4789   -4.3641   20.9564 C   0  0  0  0  0  0  0  0  0  0  0  0
    8.7421   -5.1412   16.3650 C   0  0  0  0  0  0  0  0  0  0  0  0
   11.4353   -2.9204   17.8044 C   0  0  0  0  0  0  0  0  0  0  0  0
   11.1529   -4.3028   22.1277 C   0  0  0  0  0  0  0  0  0  0  0  0
   11.1290   -4.8502   19.8052 C   0  0  0  0  0  0  0  0  0  0  0  0
   12.4329   -4.2159   24.4224 C   0  0  0  0  0  0  0  0  0  0  0  0
    3.4740   -9.0387   16.5022 C   0  0  0  0  0  0  0  0  0  0  0  0
    6.8384   -7.9290   17.5282 N   0  0  0  0  0  0  0  0  0  0  0  0
    9.4126   -5.9853   18.4899 C   0  0  0  0  0  0  0  0  0  0  0  0
    4.2064  -10.3242   18.3302 C   0  0  0  0  0  0  0  0  0  0  0  0
    9.6599   -4.1551   16.4796 N   0  0  0  0  0  0  0  0  0  0  0  0
    7.0644   -6.4612   15.7375 N   0  0  0  0  0  0  0  0  0  0  0  0
    5.3549   -9.6322   18.3190 C   0  0  0  0  0  0  0  0  0  0  0  0
   10.3704   -4.9638   18.6510 C   0  0  0  0  0  0  0  0  0  0  0  0
    5.5935   -8.6419   17.4234 C   0  0  0  0  0  0  0  0  0  0  0  0
   13.0726   -4.6648   23.3394 O   0  0  0  0  0  0  0  0  0  0  0  0
    8.5955   -6.0705   17.3996 C   0  0  0  0  0  0  0  0  0  0  0  0
    4.6223   -8.3832   16.5030 C   0  0  0  0  0  0  0  0  0  0  0  0
   12.4690   -5.2624   19.9024 C   0  0  0  0  0  0  0  0  0  0  0  0
    3.2548   -9.9919   17.4189 C   0  0  0  0  0  0  0  0  0  0  0  0
   12.4767   -4.7393   22.1790 C   0  0  0  0  0  0  0  0  0  0  0  0
    7.8593   -5.3772   15.3569 N   0  0  0  0  0  0  0  0  0  0  0  0
    7.4412   -6.9038   16.9283 C   0  0  0  0  0  0  0  0  0  0  0  0
  1 21  4  0
  1 23  4  0
  2  5  1  0
  2 13  4  0
  2 16  4  0
  3  6  4  0
  3  7  4  0
  4 13  4  0
  4 19  4  0
  4 24  4  0
  6 23  4  0
  7 16  1  0
  7 21  4  0
  8 18  1  0
  9 20  4  0
  9 22  4  0
 10 17  1  0
 10 25  1  0
 11 16  4  0
 11 19  4  0
 12 15  4  0
 12 22  4  0
 14 24  4  0
 14 25  4  0
 15 17  4  0
 17 20  4  0
 18 23  1  0
 19 25  4  0
M  END
$$$$

 Created by Python create_sdf_string function

 25 28  0  0  0  0  0  0  0  0999 V2000
   13.1533   -5.2399   21.0682 C   0  0  0  0  0  0  0  0  0  0  0  0
   10.4729   -4.0295   17.6135 C   0  0  0  0  0  0  0  0  0  0  0  0
   10.4789   -4.3641   20.9564 C   0  0  0  0  0  0  0  0  0  0  0  0
    8.7421   -5.1412   16.3650 C   0  0  0  0  0  0  0  0  0  0  0  0
   11.4353   -2.9204   17.8044 C   0  0  0  0  0  0  0  0  0  0  0  0
   11.1529   -4.3028   22.1277 C   0  0  0  0  0  0  0  0  0  0  0  0
   11.1290   -4.8502   19.8052 C   0  0  0  0  0  0  0  0  0  0  0  0
   12.4329   -4.2159   24.4224 C   0  0  0  0  0  0  0  0  0  0  0  0
    3.4740   -9.0387   16.5022 C   0  0  0  0  0  0  0  0  0  0  0  0
    6.8384   -7.9290   17.5282 N   0  0  0  0  0  0  0  0  0  0  0  0
    9.4126   -5.9853   18.4899 C   0  0  0  0  0  0  0  0  0  0  0  0
    4.2064  -10.3242   18.3302 C   0  0  0  0  0  0  0  0  0  0  0  0
    9.6599   -4.1551   16.4796 N   0  0  0  0  0  0  0  0  0  0  0  0
    7.0644   -6.4612   15.7375 N   0  0  0  0  0  0  0  0  0  0  0  0
    5.3549   -9.6322   18.3190 C   0  0  0  0  0  0  0  0  0  0  0  0
   10.3704   -4.9638   18.6510 C   0  0  0  0  0  0  0  0  0  0  0  0
    5.5935   -8.6419   17.4234 C   0  0  0  0  0  0  0  0  0  0  0  0
   13.0726   -4.6648   23.3394 O   0  0  0  0  0  0  0  0  0  0  0  0
    8.5955   -6.0705   17.3996 C   0  0  0  0  0  0  0  0  0  0  0  0
    4.6223   -8.3832   16.5030 C   0  0  0  0  0  0  0  0  0  0  0  0
   12.4690   -5.2624   19.9024 C   0  0  0  0  0  0  0  0  0  0  0  0
    3.2548   -9.9919   17.4189 C   0  0  0  0  0  0  0  0  0  0  0  0
   12.4767   -4.7393   22.1790 C   0  0  0  0  0  0  0  0  0  0  0  0
    7.8593   -5.3772   15.3569 N   0  0  0  0  0  0  0  0  0  0  0  0
    7.4412   -6.9038   16.9283 C   0  0  0  0  0  0  0  0  0  0  0  0
  1 21  4  0
  1 23  4  0
  2  5  1  0
  2 13  4  0
  2 16  4  0
  3  6  4  0
  3  7  4  0
  4 13  4  0
  4 19  4  0
  4 24  4  0
  6 23  4  0
  7 16  1  0
  7 21  4  0
  8 18  1  0
  9 20  4  0
  9 22  4  0
 10 17  1  0
 10 25  1  0
 11 16  4  0
 11 19  4  0
 12 15  4  0
 12 22  4  0
 14 24  4  0
 14 25  4  0
 15 17  4  0
 17 20  4  0
 18 23  1  0
 19 25  4  0
M  END
$$$$

 Created by Python create_sdf_string function

 25 28  0  0  0  0  0  0  0  0999 V2000
   13.1533   -5.2399   21.0682 C   0  0  0  0  0  0  0  0  0  0  0  0
   10.4729   -4.0295   17.6135 C   0  0  0  0  0  0  0  0  0  0  0  0
   10.4789   -4.3641   20.9564 C   0  0  0  0  0  0  0  0  0  0  0  0
    8.7421   -5.1412   16.3650 C   0  0  0  0  0  0  0  0  0  0  0  0
   11.4353   -2.9204   17.8044 C   0  0  0  0  0  0  0  0  0  0  0  0
   11.1529   -4.3028   22.1277 C   0  0  0  0  0  0  0  0  0  0  0  0
   11.1290   -4.8502   19.8052 C   0  0  0  0  0  0  0  0  0  0  0  0
   12.4329   -4.2159   24.4224 C   0  0  0  0  0  0  0  0  0  0  0  0
    3.4740   -9.0387   16.5022 C   0  0  0  0  0  0  0  0  0  0  0  0
    6.8384   -7.9290   17.5282 N   0  0  0  0  0  0  0  0  0  0  0  0
    9.4126   -5.9853   18.4899 C   0  0  0  0  0  0  0  0  0  0  0  0
    4.2064  -10.3242   18.3302 C   0  0  0  0  0  0  0  0  0  0  0  0
    9.6599   -4.1551   16.4796 N   0  0  0  0  0  0  0  0  0  0  0  0
    7.0644   -6.4612   15.7375 N   0  0  0  0  0  0  0  0  0  0  0  0
    5.3549   -9.6322   18.3190 C   0  0  0  0  0  0  0  0  0  0  0  0
   10.3704   -4.9638   18.6510 C   0  0  0  0  0  0  0  0  0  0  0  0
    5.5935   -8.6419   17.4234 C   0  0  0  0  0  0  0  0  0  0  0  0
   13.0726   -4.6648   23.3394 O   0  0  0  0  0  0  0  0  0  0  0  0
    8.5955   -6.0705   17.3996 C   0  0  0  0  0  0  0  0  0  0  0  0
    4.6223   -8.3832   16.5030 C   0  0  0  0  0  0  0  0  0  0  0  0
   12.4690   -5.2624   19.9024 C   0  0  0  0  0  0  0  0  0  0  0  0
    3.2548   -9.9919   17.4189 C   0  0  0  0  0  0  0  0  0  0  0  0
   12.4767   -4.7393   22.1790 C   0  0  0  0  0  0  0  0  0  0  0  0
    7.8593   -5.3772   15.3569 N   0  0  0  0  0  0  0  0  0  0  0  0
    7.4412   -6.9038   16.9283 C   0  0  0  0  0  0  0  0  0  0  0  0
  1 21  4  0
  1 23  4  0
  2  5  1  0
  2 13  4  0
  2 16  4  0
  3  6  4  0
  3  7  4  0
  4 13  4  0
  4 19  4  0
  4 24  4  0
  6 23  4  0
  7 16  1  0
  7 21  4  0
  8 18  1  0
  9 20  4  0
  9 22  4  0
 10 17  1  0
 10 25  1  0
 11 16  4  0
 11 19  4  0
 12 15  4  0
 12 22  4  0
 14 24  4  0
 14 25  4  0
 15 17  4  0
 17 20  4  0
 18 23  1  0
 19 25  4  0
M  END
$$$$

 Created by Python create_sdf_string function

 25 28  0  0  0  0  0  0  0  0999 V2000
   13.1533   -5.2399   21.0682 C   0  0  0  0  0  0  0  0  0  0  0  0
   10.4729   -4.0295   17.6135 C   0  0  0  0  0  0  0  0  0  0  0  0
   10.4789   -4.3641   20.9564 C   0  0  0  0  0  0  0  0  0  0  0  0
    8.7421   -5.1412   16.3650 C   0  0  0  0  0  0  0  0  0  0  0  0
   11.4353   -2.9204   17.8044 C   0  0  0  0  0  0  0  0  0  0  0  0
   11.1529   -4.3028   22.1277 C   0  0  0  0  0  0  0  0  0  0  0  0
   11.1290   -4.8502   19.8052 C   0  0  0  0  0  0  0  0  0  0  0  0
   12.4329   -4.2159   24.4224 C   0  0  0  0  0  0  0  0  0  0  0  0
    3.4740   -9.0387   16.5022 C   0  0  0  0  0  0  0  0  0  0  0  0
    6.8384   -7.9290   17.5282 N   0  0  0  0  0  0  0  0  0  0  0  0
    9.4126   -5.9853   18.4899 C   0  0  0  0  0  0  0  0  0  0  0  0
    4.2064  -10.3242   18.3302 C   0  0  0  0  0  0  0  0  0  0  0  0
    9.6599   -4.1551   16.4796 N   0  0  0  0  0  0  0  0  0  0  0  0
    7.0644   -6.4612   15.7375 N   0  0  0  0  0  0  0  0  0  0  0  0
    5.3549   -9.6322   18.3190 C   0  0  0  0  0  0  0  0  0  0  0  0
   10.3704   -4.9638   18.6510 C   0  0  0  0  0  0  0  0  0  0  0  0
    5.5935   -8.6419   17.4234 C   0  0  0  0  0  0  0  0  0  0  0  0
   13.0726   -4.6648   23.3394 O   0  0  0  0  0  0  0  0  0  0  0  0
    8.5955   -6.0705   17.3996 C   0  0  0  0  0  0  0  0  0  0  0  0
    4.6223   -8.3832   16.5030 C   0  0  0  0  0  0  0  0  0  0  0  0
   12.4690   -5.2624   19.9024 C   0  0  0  0  0  0  0  0  0  0  0  0
    3.2548   -9.9919   17.4189 C   0  0  0  0  0  0  0  0  0  0  0  0
   12.4767   -4.7393   22.1790 C   0  0  0  0  0  0  0  0  0  0  0  0
    7.8593   -5.3772   15.3569 N   0  0  0  0  0  0  0  0  0  0  0  0
    7.4412   -6.9038   16.9283 C   0  0  0  0  0  0  0  0  0  0  0  0
  1 21  4  0
  1 23  4  0
  2  5  1  0
  2 13  4  0
  2 16  4  0
  3  6  4  0
  3  7  4  0
  4 13  4  0
  4 19  4  0
  4 24  4  0
  6 23  4  0
  7 16  1  0
  7 21  4  0
  8 18  1  0
  9 20  4  0
  9 22  4  0
 10 17  1  0
 10 25  1  0
 11 16  4  0
 11 19  4  0
 12 15  4  0
 12 22  4  0
 14 24  4  0
 14 25  4  0
 15 17  4  0
 17 20  4  0
 18 23  1  0
 19 25  4  0
M  END
$$$$

 Created by Python create_sdf_string function

 25 28  0  0  0  0  0  0  0  0999 V2000
   13.1533   -5.2399   21.0682 C   0  0  0  0  0  0  0  0  0  0  0  0
   10.4729   -4.0295   17.6135 C   0  0  0  0  0  0  0  0  0  0  0  0
   10.4789   -4.3641   20.9564 C   0  0  0  0  0  0  0  0  0  0  0  0
    8.7421   -5.1412   16.3650 C   0  0  0  0  0  0  0  0  0  0  0  0
   11.4353   -2.9204   17.8044 C   0  0  0  0  0  0  0  0  0  0  0  0
   11.1529   -4.3028   22.1277 C   0  0  0  0  0  0  0  0  0  0  0  0
   11.1290   -4.8502   19.8052 C   0  0  0  0  0  0  0  0  0  0  0  0
   12.4329   -4.2159   24.4224 C   0  0  0  0  0  0  0  0  0  0  0  0
    3.4740   -9.0387   16.5022 C   0  0  0  0  0  0  0  0  0  0  0  0
    6.8384   -7.9290   17.5282 N   0  0  0  0  0  0  0  0  0  0  0  0
    9.4126   -5.9853   18.4899 C   0  0  0  0  0  0  0  0  0  0  0  0
    4.2064  -10.3242   18.3302 C   0  0  0  0  0  0  0  0  0  0  0  0
    9.6599   -4.1551   16.4796 N   0  0  0  0  0  0  0  0  0  0  0  0
    7.0644   -6.4612   15.7375 N   0  0  0  0  0  0  0  0  0  0  0  0
    5.3549   -9.6322   18.3190 C   0  0  0  0  0  0  0  0  0  0  0  0
   10.3704   -4.9638   18.6510 C   0  0  0  0  0  0  0  0  0  0  0  0
    5.5935   -8.6419   17.4234 C   0  0  0  0  0  0  0  0  0  0  0  0
   13.0726   -4.6648   23.3394 O   0  0  0  0  0  0  0  0  0  0  0  0
    8.5955   -6.0705   17.3996 C   0  0  0  0  0  0  0  0  0  0  0  0
    4.6223   -8.3832   16.5030 C   0  0  0  0  0  0  0  0  0  0  0  0
   12.4690   -5.2624   19.9024 C   0  0  0  0  0  0  0  0  0  0  0  0
    3.2548   -9.9919   17.4189 C   0  0  0  0  0  0  0  0  0  0  0  0
   12.4767   -4.7393   22.1790 C   0  0  0  0  0  0  0  0  0  0  0  0
    7.8593   -5.3772   15.3569 N   0  0  0  0  0  0  0  0  0  0  0  0
    7.4412   -6.9038   16.9283 C   0  0  0  0  0  0  0  0  0  0  0  0
  1 21  4  0
  1 23  4  0
  2  5  1  0
  2 13  4  0
  2 16  4  0
  3  6  4  0
  3  7  4  0
  4 13  4  0
  4 19  4  0
  4 24  4  0
  6 23  4  0
  7 16  1  0
  7 21  4  0
  8 18  1  0
  9 20  4  0
  9 22  4  0
 10 17  1  0
 10 25  1  0
 11 16  4  0
 11 19  4  0
 12 15  4  0
 12 22  4  0
 14 24  4  0
 14 25  4  0
 15 17  4  0
 17 20  4  0
 18 23  1  0
 19 25  4  0
M  END
$$$$

 Created by Python create_sdf_string function

 25 28  0  0  0  0  0  0  0  0999 V2000
   13.1533   -5.2399   21.0682 C   0  0  0  0  0  0  0  0  0  0  0  0
   10.4729   -4.0295   17.6135 C   0  0  0  0  0  0  0  0  0  0  0  0
   10.4789   -4.3641   20.9564 C   0  0  0  0  0  0  0  0  0  0  0  0
    8.7421   -5.1412   16.3650 C   0  0  0  0  0  0  0  0  0  0  0  0
   11.4353   -2.9204   17.8044 C   0  0  0  0  0  0  0  0  0  0  0  0
   11.1529   -4.3028   22.1277 C   0  0  0  0  0  0  0  0  0  0  0  0
   11.1290   -4.8502   19.8052 C   0  0  0  0  0  0  0  0  0  0  0  0
   12.4329   -4.2159   24.4224 C   0  0  0  0  0  0  0  0  0  0  0  0
    3.4740   -9.0387   16.5022 C   0  0  0  0  0  0  0  0  0  0  0  0
    6.8384   -7.9290   17.5282 N   0  0  0  0  0  0  0  0  0  0  0  0
    9.4126   -5.9853   18.4899 C   0  0  0  0  0  0  0  0  0  0  0  0
    4.2064  -10.3242   18.3302 C   0  0  0  0  0  0  0  0  0  0  0  0
    9.6599   -4.1551   16.4796 N   0  0  0  0  0  0  0  0  0  0  0  0
    7.0644   -6.4612   15.7375 N   0  0  0  0  0  0  0  0  0  0  0  0
    5.3549   -9.6322   18.3190 C   0  0  0  0  0  0  0  0  0  0  0  0
   10.3704   -4.9638   18.6510 C   0  0  0  0  0  0  0  0  0  0  0  0
    5.5935   -8.6419   17.4234 C   0  0  0  0  0  0  0  0  0  0  0  0
   13.0726   -4.6648   23.3394 O   0  0  0  0  0  0  0  0  0  0  0  0
    8.5955   -6.0705   17.3996 C   0  0  0  0  0  0  0  0  0  0  0  0
    4.6223   -8.3832   16.5030 C   0  0  0  0  0  0  0  0  0  0  0  0
   12.4690   -5.2624   19.9024 C   0  0  0  0  0  0  0  0  0  0  0  0
    3.2548   -9.9919   17.4189 C   0  0  0  0  0  0  0  0  0  0  0  0
   12.4767   -4.7393   22.1790 C   0  0  0  0  0  0  0  0  0  0  0  0
    7.8593   -5.3772   15.3569 N   0  0  0  0  0  0  0  0  0  0  0  0
    7.4412   -6.9038   16.9283 C   0  0  0  0  0  0  0  0  0  0  0  0
  1 21  4  0
  1 23  4  0
  2  5  1  0
  2 13  4  0
  2 16  4  0
  3  6  4  0
  3  7  4  0
  4 13  4  0
  4 19  4  0
  4 24  4  0
  6 23  4  0
  7 16  1  0
  7 21  4  0
  8 18  1  0
  9 20  4  0
  9 22  4  0
 10 17  1  0
 10 25  1  0
 11 16  4  0
 11 19  4  0
 12 15  4  0
 12 22  4  0
 14 24  4  0
 14 25  4  0
 15 17  4  0
 17 20  4  0
 18 23  1  0
 19 25  4  0
M  END
$$$$

 Created by Python create_sdf_string function

 25 28  0  0  0  0  0  0  0  0999 V2000
   13.1533   -5.2399   21.0682 C   0  0  0  0  0  0  0  0  0  0  0  0
   10.4729   -4.0295   17.6135 C   0  0  0  0  0  0  0  0  0  0  0  0
   10.4789   -4.3641   20.9564 C   0  0  0  0  0  0  0  0  0  0  0  0
    8.7421   -5.1412   16.3650 C   0  0  0  0  0  0  0  0  0  0  0  0
   11.4353   -2.9204   17.8044 C   0  0  0  0  0  0  0  0  0  0  0  0
   11.1529   -4.3028   22.1277 C   0  0  0  0  0  0  0  0  0  0  0  0
   11.1290   -4.8502   19.8052 C   0  0  0  0  0  0  0  0  0  0  0  0
   12.4329   -4.2159   24.4224 C   0  0  0  0  0  0  0  0  0  0  0  0
    3.4740   -9.0387   16.5022 C   0  0  0  0  0  0  0  0  0  0  0  0
    6.8384   -7.9290   17.5282 N   0  0  0  0  0  0  0  0  0  0  0  0
    9.4126   -5.9853   18.4899 C   0  0  0  0  0  0  0  0  0  0  0  0
    4.2064  -10.3242   18.3302 C   0  0  0  0  0  0  0  0  0  0  0  0
    9.6599   -4.1551   16.4796 N   0  0  0  0  0  0  0  0  0  0  0  0
    7.0644   -6.4612   15.7375 N   0  0  0  0  0  0  0  0  0  0  0  0
    5.3549   -9.6322   18.3190 C   0  0  0  0  0  0  0  0  0  0  0  0
   10.3704   -4.9638   18.6510 C   0  0  0  0  0  0  0  0  0  0  0  0
    5.5935   -8.6419   17.4234 C   0  0  0  0  0  0  0  0  0  0  0  0
   13.0726   -4.6648   23.3394 O   0  0  0  0  0  0  0  0  0  0  0  0
    8.5955   -6.0705   17.3996 C   0  0  0  0  0  0  0  0  0  0  0  0
    4.6223   -8.3832   16.5030 C   0  0  0  0  0  0  0  0  0  0  0  0
   12.4690   -5.2624   19.9024 C   0  0  0  0  0  0  0  0  0  0  0  0
    3.2548   -9.9919   17.4189 C   0  0  0  0  0  0  0  0  0  0  0  0
   12.4767   -4.7393   22.1790 C   0  0  0  0  0  0  0  0  0  0  0  0
    7.8593   -5.3772   15.3569 N   0  0  0  0  0  0  0  0  0  0  0  0
    7.4412   -6.9038   16.9283 C   0  0  0  0  0  0  0  0  0  0  0  0
  1 21  4  0
  1 23  4  0
  2  5  1  0
  2 13  4  0
  2 16  4  0
  3  6  4  0
  3  7  4  0
  4 13  4  0
  4 19  4  0
  4 24  4  0
  6 23  4  0
  7 16  1  0
  7 21  4  0
  8 18  1  0
  9 20  4  0
  9 22  4  0
 10 17  1  0
 10 25  1  0
 11 16  4  0
 11 19  4  0
 12 15  4  0
 12 22  4  0
 14 24  4  0
 14 25  4  0
 15 17  4  0
 17 20  4  0
 18 23  1  0
 19 25  4  0
M  END
$$$$

 Created by Python create_sdf_string function

 25 28  0  0  0  0  0  0  0  0999 V2000
   13.1533   -5.2399   21.0682 C   0  0  0  0  0  0  0  0  0  0  0  0
   10.4729   -4.0295   17.6135 C   0  0  0  0  0  0  0  0  0  0  0  0
   10.4789   -4.3641   20.9564 C   0  0  0  0  0  0  0  0  0  0  0  0
    8.7421   -5.1412   16.3650 C   0  0  0  0  0  0  0  0  0  0  0  0
   11.4353   -2.9204   17.8044 C   0  0  0  0  0  0  0  0  0  0  0  0
   11.1529   -4.3028   22.1277 C   0  0  0  0  0  0  0  0  0  0  0  0
   11.1290   -4.8502   19.8052 C   0  0  0  0  0  0  0  0  0  0  0  0
   12.4329   -4.2159   24.4224 C   0  0  0  0  0  0  0  0  0  0  0  0
    3.4740   -9.0387   16.5022 C   0  0  0  0  0  0  0  0  0  0  0  0
    6.8384   -7.9290   17.5282 N   0  0  0  0  0  0  0  0  0  0  0  0
    9.4126   -5.9853   18.4899 C   0  0  0  0  0  0  0  0  0  0  0  0
    4.2064  -10.3242   18.3302 C   0  0  0  0  0  0  0  0  0  0  0  0
    9.6599   -4.1551   16.4796 N   0  0  0  0  0  0  0  0  0  0  0  0
    7.0644   -6.4612   15.7375 N   0  0  0  0  0  0  0  0  0  0  0  0
    5.3549   -9.6322   18.3190 C   0  0  0  0  0  0  0  0  0  0  0  0
   10.3704   -4.9638   18.6510 C   0  0  0  0  0  0  0  0  0  0  0  0
    5.5935   -8.6419   17.4234 C   0  0  0  0  0  0  0  0  0  0  0  0
   13.0726   -4.6648   23.3394 O   0  0  0  0  0  0  0  0  0  0  0  0
    8.5955   -6.0705   17.3996 C   0  0  0  0  0  0  0  0  0  0  0  0
    4.6223   -8.3832   16.5030 C   0  0  0  0  0  0  0  0  0  0  0  0
   12.4690   -5.2624   19.9024 C   0  0  0  0  0  0  0  0  0  0  0  0
    3.2548   -9.9919   17.4189 C   0  0  0  0  0  0  0  0  0  0  0  0
   12.4767   -4.7393   22.1790 C   0  0  0  0  0  0  0  0  0  0  0  0
    7.8593   -5.3772   15.3569 N   0  0  0  0  0  0  0  0  0  0  0  0
    7.4412   -6.9038   16.9283 C   0  0  0  0  0  0  0  0  0  0  0  0
  1 21  4  0
  1 23  4  0
  2  5  1  0
  2 13  4  0
  2 16  4  0
  3  6  4  0
  3  7  4  0
  4 13  4  0
  4 19  4  0
  4 24  4  0
  6 23  4  0
  7 16  1  0
  7 21  4  0
  8 18  1  0
  9 20  4  0
  9 22  4  0
 10 17  1  0
 10 25  1  0
 11 16  4  0
 11 19  4  0
 12 15  4  0
 12 22  4  0
 14 24  4  0
 14 25  4  0
 15 17  4  0
 17 20  4  0
 18 23  1  0
 19 25  4  0
M  END
$$$$

 Created by Python create_sdf_string function

 25 28  0  0  0  0  0  0  0  0999 V2000
   13.1533   -5.2399   21.0682 C   0  0  0  0  0  0  0  0  0  0  0  0
   10.4729   -4.0295   17.6135 C   0  0  0  0  0  0  0  0  0  0  0  0
   10.4789   -4.3641   20.9564 C   0  0  0  0  0  0  0  0  0  0  0  0
    8.7421   -5.1412   16.3650 C   0  0  0  0  0  0  0  0  0  0  0  0
   11.4353   -2.9204   17.8044 C   0  0  0  0  0  0  0  0  0  0  0  0
   11.1529   -4.3028   22.1277 C   0  0  0  0  0  0  0  0  0  0  0  0
   11.1290   -4.8502   19.8052 C   0  0  0  0  0  0  0  0  0  0  0  0
   12.4329   -4.2159   24.4224 C   0  0  0  0  0  0  0  0  0  0  0  0
    3.4740   -9.0387   16.5022 C   0  0  0  0  0  0  0  0  0  0  0  0
    6.8384   -7.9290   17.5282 N   0  0  0  0  0  0  0  0  0  0  0  0
    9.4126   -5.9853   18.4899 C   0  0  0  0  0  0  0  0  0  0  0  0
    4.2064  -10.3242   18.3302 C   0  0  0  0  0  0  0  0  0  0  0  0
    9.6599   -4.1551   16.4796 N   0  0  0  0  0  0  0  0  0  0  0  0
    7.0644   -6.4612   15.7375 N   0  0  0  0  0  0  0  0  0  0  0  0
    5.3549   -9.6322   18.3190 C   0  0  0  0  0  0  0  0  0  0  0  0
   10.3704   -4.9638   18.6510 C   0  0  0  0  0  0  0  0  0  0  0  0
    5.5935   -8.6419   17.4234 C   0  0  0  0  0  0  0  0  0  0  0  0
   13.0726   -4.6648   23.3394 O   0  0  0  0  0  0  0  0  0  0  0  0
    8.5955   -6.0705   17.3996 C   0  0  0  0  0  0  0  0  0  0  0  0
    4.6223   -8.3832   16.5030 C   0  0  0  0  0  0  0  0  0  0  0  0
   12.4690   -5.2624   19.9024 C   0  0  0  0  0  0  0  0  0  0  0  0
    3.2548   -9.9919   17.4189 C   0  0  0  0  0  0  0  0  0  0  0  0
   12.4767   -4.7393   22.1790 C   0  0  0  0  0  0  0  0  0  0  0  0
    7.8593   -5.3772   15.3569 N   0  0  0  0  0  0  0  0  0  0  0  0
    7.4412   -6.9038   16.9283 C   0  0  0  0  0  0  0  0  0  0  0  0
  1 21  4  0
  1 23  4  0
  2  5  1  0
  2 13  4  0
  2 16  4  0
  3  6  4  0
  3  7  4  0
  4 13  4  0
  4 19  4  0
  4 24  4  0
  6 23  4  0
  7 16  1  0
  7 21  4  0
  8 18  1  0
  9 20  4  0
  9 22  4  0
 10 17  1  0
 10 25  1  0
 11 16  4  0
 11 19  4  0
 12 15  4  0
 12 22  4  0
 14 24  4  0
 14 25  4  0
 15 17  4  0
 17 20  4  0
 18 23  1  0
 19 25  4  0
M  END
$$$$

 Created by Python create_sdf_string function

 25 28  0  0  0  0  0  0  0  0999 V2000
   13.1533   -5.2399   21.0682 C   0  0  0  0  0  0  0  0  0  0  0  0
   10.4729   -4.0295   17.6135 C   0  0  0  0  0  0  0  0  0  0  0  0
   10.4789   -4.3641   20.9564 C   0  0  0  0  0  0  0  0  0  0  0  0
    8.7421   -5.1412   16.3650 C   0  0  0  0  0  0  0  0  0  0  0  0
   11.4353   -2.9204   17.8044 C   0  0  0  0  0  0  0  0  0  0  0  0
   11.1529   -4.3028   22.1277 C   0  0  0  0  0  0  0  0  0  0  0  0
   11.1290   -4.8502   19.8052 C   0  0  0  0  0  0  0  0  0  0  0  0
   12.4329   -4.2159   24.4224 C   0  0  0  0  0  0  0  0  0  0  0  0
    3.4740   -9.0387   16.5022 C   0  0  0  0  0  0  0  0  0  0  0  0
    6.8384   -7.9290   17.5282 N   0  0  0  0  0  0  0  0  0  0  0  0
    9.4126   -5.9853   18.4899 C   0  0  0  0  0  0  0  0  0  0  0  0
    4.2064  -10.3242   18.3302 C   0  0  0  0  0  0  0  0  0  0  0  0
    9.6599   -4.1551   16.4796 N   0  0  0  0  0  0  0  0  0  0  0  0
    7.0644   -6.4612   15.7375 N   0  0  0  0  0  0  0  0  0  0  0  0
    5.3549   -9.6322   18.3190 C   0  0  0  0  0  0  0  0  0  0  0  0
   10.3704   -4.9638   18.6510 C   0  0  0  0  0  0  0  0  0  0  0  0
    5.5935   -8.6419   17.4234 C   0  0  0  0  0  0  0  0  0  0  0  0
   13.0726   -4.6648   23.3394 O   0  0  0  0  0  0  0  0  0  0  0  0
    8.5955   -6.0705   17.3996 C   0  0  0  0  0  0  0  0  0  0  0  0
    4.6223   -8.3832   16.5030 C   0  0  0  0  0  0  0  0  0  0  0  0
   12.4690   -5.2624   19.9024 C   0  0  0  0  0  0  0  0  0  0  0  0
    3.2548   -9.9919   17.4189 C   0  0  0  0  0  0  0  0  0  0  0  0
   12.4767   -4.7393   22.1790 C   0  0  0  0  0  0  0  0  0  0  0  0
    7.8593   -5.3772   15.3569 N   0  0  0  0  0  0  0  0  0  0  0  0
    7.4412   -6.9038   16.9283 C   0  0  0  0  0  0  0  0  0  0  0  0
  1 21  4  0
  1 23  4  0
  2  5  1  0
  2 13  4  0
  2 16  4  0
  3  6  4  0
  3  7  4  0
  4 13  4  0
  4 19  4  0
  4 24  4  0
  6 23  4  0
  7 16  1  0
  7 21  4  0
  8 18  1  0
  9 20  4  0
  9 22  4  0
 10 17  1  0
 10 25  1  0
 11 16  4  0
 11 19  4  0
 12 15  4  0
 12 22  4  0
 14 24  4  0
 14 25  4  0
 15 17  4  0
 17 20  4  0
 18 23  1  0
 19 25  4  0
M  END
$$$$

 Created by Python create_sdf_string function

 25 28  0  0  0  0  0  0  0  0999 V2000
   13.1533   -5.2399   21.0682 C   0  0  0  0  0  0  0  0  0  0  0  0
   10.4729   -4.0295   17.6135 C   0  0  0  0  0  0  0  0  0  0  0  0
   10.4789   -4.3641   20.9564 C   0  0  0  0  0  0  0  0  0  0  0  0
    8.7421   -5.1412   16.3650 C   0  0  0  0  0  0  0  0  0  0  0  0
   11.4353   -2.9204   17.8044 C   0  0  0  0  0  0  0  0  0  0  0  0
   11.1529   -4.3028   22.1277 C   0  0  0  0  0  0  0  0  0  0  0  0
   11.1290   -4.8502   19.8052 C   0  0  0  0  0  0  0  0  0  0  0  0
   12.4329   -4.2159   24.4224 C   0  0  0  0  0  0  0  0  0  0  0  0
    3.4740   -9.0387   16.5022 C   0  0  0  0  0  0  0  0  0  0  0  0
    6.8384   -7.9290   17.5282 N   0  0  0  0  0  0  0  0  0  0  0  0
    9.4126   -5.9853   18.4899 C   0  0  0  0  0  0  0  0  0  0  0  0
    4.2064  -10.3242   18.3302 C   0  0  0  0  0  0  0  0  0  0  0  0
    9.6599   -4.1551   16.4796 N   0  0  0  0  0  0  0  0  0  0  0  0
    7.0644   -6.4612   15.7375 N   0  0  0  0  0  0  0  0  0  0  0  0
    5.3549   -9.6322   18.3190 C   0  0  0  0  0  0  0  0  0  0  0  0
   10.3704   -4.9638   18.6510 C   0  0  0  0  0  0  0  0  0  0  0  0
    5.5935   -8.6419   17.4234 C   0  0  0  0  0  0  0  0  0  0  0  0
   13.0726   -4.6648   23.3394 O   0  0  0  0  0  0  0  0  0  0  0  0
    8.5955   -6.0705   17.3996 C   0  0  0  0  0  0  0  0  0  0  0  0
    4.6223   -8.3832   16.5030 C   0  0  0  0  0  0  0  0  0  0  0  0
   12.4690   -5.2624   19.9024 C   0  0  0  0  0  0  0  0  0  0  0  0
    3.2548   -9.9919   17.4189 C   0  0  0  0  0  0  0  0  0  0  0  0
   12.4767   -4.7393   22.1790 C   0  0  0  0  0  0  0  0  0  0  0  0
    7.8593   -5.3772   15.3569 N   0  0  0  0  0  0  0  0  0  0  0  0
    7.4412   -6.9038   16.9283 C   0  0  0  0  0  0  0  0  0  0  0  0
  1 21  4  0
  1 23  4  0
  2  5  1  0
  2 13  4  0
  2 16  4  0
  3  6  4  0
  3  7  4  0
  4 13  4  0
  4 19  4  0
  4 24  4  0
  6 23  4  0
  7 16  1  0
  7 21  4  0
  8 18  1  0
  9 20  4  0
  9 22  4  0
 10 17  1  0
 10 25  1  0
 11 16  4  0
 11 19  4  0
 12 15  4  0
 12 22  4  0
 14 24  4  0
 14 25  4  0
 15 17  4  0
 17 20  4  0
 18 23  1  0
 19 25  4  0
M  END
$$$$

 Created by Python create_sdf_string function

 25 28  0  0  0  0  0  0  0  0999 V2000
   13.1533   -5.2399   21.0682 C   0  0  0  0  0  0  0  0  0  0  0  0
   10.4729   -4.0295   17.6135 C   0  0  0  0  0  0  0  0  0  0  0  0
   10.4789   -4.3641   20.9564 C   0  0  0  0  0  0  0  0  0  0  0  0
    8.7421   -5.1412   16.3650 C   0  0  0  0  0  0  0  0  0  0  0  0
   11.4353   -2.9204   17.8044 C   0  0  0  0  0  0  0  0  0  0  0  0
   11.1529   -4.3028   22.1277 C   0  0  0  0  0  0  0  0  0  0  0  0
   11.1290   -4.8502   19.8052 C   0  0  0  0  0  0  0  0  0  0  0  0
   12.4329   -4.2159   24.4224 C   0  0  0  0  0  0  0  0  0  0  0  0
    3.4740   -9.0387   16.5022 C   0  0  0  0  0  0  0  0  0  0  0  0
    6.8384   -7.9290   17.5282 N   0  0  0  0  0  0  0  0  0  0  0  0
    9.4126   -5.9853   18.4899 C   0  0  0  0  0  0  0  0  0  0  0  0
    4.2064  -10.3242   18.3302 C   0  0  0  0  0  0  0  0  0  0  0  0
    9.6599   -4.1551   16.4796 N   0  0  0  0  0  0  0  0  0  0  0  0
    7.0644   -6.4612   15.7375 N   0  0  0  0  0  0  0  0  0  0  0  0
    5.3549   -9.6322   18.3190 C   0  0  0  0  0  0  0  0  0  0  0  0
   10.3704   -4.9638   18.6510 C   0  0  0  0  0  0  0  0  0  0  0  0
    5.5935   -8.6419   17.4234 C   0  0  0  0  0  0  0  0  0  0  0  0
   13.0726   -4.6648   23.3394 O   0  0  0  0  0  0  0  0  0  0  0  0
    8.5955   -6.0705   17.3996 C   0  0  0  0  0  0  0  0  0  0  0  0
    4.6223   -8.3832   16.5030 C   0  0  0  0  0  0  0  0  0  0  0  0
   12.4690   -5.2624   19.9024 C   0  0  0  0  0  0  0  0  0  0  0  0
    3.2548   -9.9919   17.4189 C   0  0  0  0  0  0  0  0  0  0  0  0
   12.4767   -4.7393   22.1790 C   0  0  0  0  0  0  0  0  0  0  0  0
    7.8593   -5.3772   15.3569 N   0  0  0  0  0  0  0  0  0  0  0  0
    7.4412   -6.9038   16.9283 C   0  0  0  0  0  0  0  0  0  0  0  0
  1 21  4  0
  1 23  4  0
  2  5  1  0
  2 13  4  0
  2 16  4  0
  3  6  4  0
  3  7  4  0
  4 13  4  0
  4 19  4  0
  4 24  4  0
  6 23  4  0
  7 16  1  0
  7 21  4  0
  8 18  1  0
  9 20  4  0
  9 22  4  0
 10 17  1  0
 10 25  1  0
 11 16  4  0
 11 19  4  0
 12 15  4  0
 12 22  4  0
 14 24  4  0
 14 25  4  0
 15 17  4  0
 17 20  4  0
 18 23  1  0
 19 25  4  0
M  END
$$$$

 Created by Python create_sdf_string function

 25 28  0  0  0  0  0  0  0  0999 V2000
   13.1533   -5.2399   21.0682 C   0  0  0  0  0  0  0  0  0  0  0  0
   10.4729   -4.0295   17.6135 C   0  0  0  0  0  0  0  0  0  0  0  0
   10.4789   -4.3641   20.9564 C   0  0  0  0  0  0  0  0  0  0  0  0
    8.7421   -5.1412   16.3650 C   0  0  0  0  0  0  0  0  0  0  0  0
   11.4353   -2.9204   17.8044 C   0  0  0  0  0  0  0  0  0  0  0  0
   11.1529   -4.3028   22.1277 C   0  0  0  0  0  0  0  0  0  0  0  0
   11.1290   -4.8502   19.8052 C   0  0  0  0  0  0  0  0  0  0  0  0
   12.4329   -4.2159   24.4224 C   0  0  0  0  0  0  0  0  0  0  0  0
    3.4740   -9.0387   16.5022 C   0  0  0  0  0  0  0  0  0  0  0  0
    6.8384   -7.9290   17.5282 N   0  0  0  0  0  0  0  0  0  0  0  0
    9.4126   -5.9853   18.4899 C   0  0  0  0  0  0  0  0  0  0  0  0
    4.2064  -10.3242   18.3302 C   0  0  0  0  0  0  0  0  0  0  0  0
    9.6599   -4.1551   16.4796 N   0  0  0  0  0  0  0  0  0  0  0  0
    7.0644   -6.4612   15.7375 N   0  0  0  0  0  0  0  0  0  0  0  0
    5.3549   -9.6322   18.3190 C   0  0  0  0  0  0  0  0  0  0  0  0
   10.3704   -4.9638   18.6510 C   0  0  0  0  0  0  0  0  0  0  0  0
    5.5935   -8.6419   17.4234 C   0  0  0  0  0  0  0  0  0  0  0  0
   13.0726   -4.6648   23.3394 O   0  0  0  0  0  0  0  0  0  0  0  0
    8.5955   -6.0705   17.3996 C   0  0  0  0  0  0  0  0  0  0  0  0
    4.6223   -8.3832   16.5030 C   0  0  0  0  0  0  0  0  0  0  0  0
   12.4690   -5.2624   19.9024 C   0  0  0  0  0  0  0  0  0  0  0  0
    3.2548   -9.9919   17.4189 C   0  0  0  0  0  0  0  0  0  0  0  0
   12.4767   -4.7393   22.1790 C   0  0  0  0  0  0  0  0  0  0  0  0
    7.8593   -5.3772   15.3569 N   0  0  0  0  0  0  0  0  0  0  0  0
    7.4412   -6.9038   16.9283 C   0  0  0  0  0  0  0  0  0  0  0  0
  1 21  4  0
  1 23  4  0
  2  5  1  0
  2 13  4  0
  2 16  4  0
  3  6  4  0
  3  7  4  0
  4 13  4  0
  4 19  4  0
  4 24  4  0
  6 23  4  0
  7 16  1  0
  7 21  4  0
  8 18  1  0
  9 20  4  0
  9 22  4  0
 10 17  1  0
 10 25  1  0
 11 16  4  0
 11 19  4  0
 12 15  4  0
 12 22  4  0
 14 24  4  0
 14 25  4  0
 15 17  4  0
 17 20  4  0
 18 23  1  0
 19 25  4  0
M  END
$$$$

 Created by Python create_sdf_string function

 25 28  0  0  0  0  0  0  0  0999 V2000
   13.1533   -5.2399   21.0682 C   0  0  0  0  0  0  0  0  0  0  0  0
   10.4729   -4.0295   17.6135 C   0  0  0  0  0  0  0  0  0  0  0  0
   10.4789   -4.3641   20.9564 C   0  0  0  0  0  0  0  0  0  0  0  0
    8.7421   -5.1412   16.3650 C   0  0  0  0  0  0  0  0  0  0  0  0
   11.4353   -2.9204   17.8044 C   0  0  0  0  0  0  0  0  0  0  0  0
   11.1529   -4.3028   22.1277 C   0  0  0  0  0  0  0  0  0  0  0  0
   11.1290   -4.8502   19.8052 C   0  0  0  0  0  0  0  0  0  0  0  0
   12.4329   -4.2159   24.4224 C   0  0  0  0  0  0  0  0  0  0  0  0
    3.4740   -9.0387   16.5022 C   0  0  0  0  0  0  0  0  0  0  0  0
    6.8384   -7.9290   17.5282 N   0  0  0  0  0  0  0  0  0  0  0  0
    9.4126   -5.9853   18.4899 C   0  0  0  0  0  0  0  0  0  0  0  0
    4.2064  -10.3242   18.3302 C   0  0  0  0  0  0  0  0  0  0  0  0
    9.6599   -4.1551   16.4796 N   0  0  0  0  0  0  0  0  0  0  0  0
    7.0644   -6.4612   15.7375 N   0  0  0  0  0  0  0  0  0  0  0  0
    5.3549   -9.6322   18.3190 C   0  0  0  0  0  0  0  0  0  0  0  0
   10.3704   -4.9638   18.6510 C   0  0  0  0  0  0  0  0  0  0  0  0
    5.5935   -8.6419   17.4234 C   0  0  0  0  0  0  0  0  0  0  0  0
   13.0726   -4.6648   23.3394 O   0  0  0  0  0  0  0  0  0  0  0  0
    8.5955   -6.0705   17.3996 C   0  0  0  0  0  0  0  0  0  0  0  0
    4.6223   -8.3832   16.5030 C   0  0  0  0  0  0  0  0  0  0  0  0
   12.4690   -5.2624   19.9024 C   0  0  0  0  0  0  0  0  0  0  0  0
    3.2548   -9.9919   17.4189 C   0  0  0  0  0  0  0  0  0  0  0  0
   12.4767   -4.7393   22.1790 C   0  0  0  0  0  0  0  0  0  0  0  0
    7.8593   -5.3772   15.3569 N   0  0  0  0  0  0  0  0  0  0  0  0
    7.4412   -6.9038   16.9283 C   0  0  0  0  0  0  0  0  0  0  0  0
  1 21  4  0
  1 23  4  0
  2  5  1  0
  2 13  4  0
  2 16  4  0
  3  6  4  0
  3  7  4  0
  4 13  4  0
  4 19  4  0
  4 24  4  0
  6 23  4  0
  7 16  1  0
  7 21  4  0
  8 18  1  0
  9 20  4  0
  9 22  4  0
 10 17  1  0
 10 25  1  0
 11 16  4  0
 11 19  4  0
 12 15  4  0
 12 22  4  0
 14 24  4  0
 14 25  4  0
 15 17  4  0
 17 20  4  0
 18 23  1  0
 19 25  4  0
M  END
$$$$

 Created by Python create_sdf_string function

 25 28  0  0  0  0  0  0  0  0999 V2000
   13.1533   -5.2399   21.0682 C   0  0  0  0  0  0  0  0  0  0  0  0
   10.4729   -4.0295   17.6135 C   0  0  0  0  0  0  0  0  0  0  0  0
   10.4789   -4.3641   20.9564 C   0  0  0  0  0  0  0  0  0  0  0  0
    8.7421   -5.1412   16.3650 C   0  0  0  0  0  0  0  0  0  0  0  0
   11.4353   -2.9204   17.8044 C   0  0  0  0  0  0  0  0  0  0  0  0
   11.1529   -4.3028   22.1277 C   0  0  0  0  0  0  0  0  0  0  0  0
   11.1290   -4.8502   19.8052 C   0  0  0  0  0  0  0  0  0  0  0  0
   12.4329   -4.2159   24.4224 C   0  0  0  0  0  0  0  0  0  0  0  0
    3.4740   -9.0387   16.5022 C   0  0  0  0  0  0  0  0  0  0  0  0
    6.8384   -7.9290   17.5282 N   0  0  0  0  0  0  0  0  0  0  0  0
    9.4126   -5.9853   18.4899 C   0  0  0  0  0  0  0  0  0  0  0  0
    4.2064  -10.3242   18.3302 C   0  0  0  0  0  0  0  0  0  0  0  0
    9.6599   -4.1551   16.4796 N   0  0  0  0  0  0  0  0  0  0  0  0
    7.0644   -6.4612   15.7375 N   0  0  0  0  0  0  0  0  0  0  0  0
    5.3549   -9.6322   18.3190 C   0  0  0  0  0  0  0  0  0  0  0  0
   10.3704   -4.9638   18.6510 C   0  0  0  0  0  0  0  0  0  0  0  0
    5.5935   -8.6419   17.4234 C   0  0  0  0  0  0  0  0  0  0  0  0
   13.0726   -4.6648   23.3394 O   0  0  0  0  0  0  0  0  0  0  0  0
    8.5955   -6.0705   17.3996 C   0  0  0  0  0  0  0  0  0  0  0  0
    4.6223   -8.3832   16.5030 C   0  0  0  0  0  0  0  0  0  0  0  0
   12.4690   -5.2624   19.9024 C   0  0  0  0  0  0  0  0  0  0  0  0
    3.2548   -9.9919   17.4189 C   0  0  0  0  0  0  0  0  0  0  0  0
   12.4767   -4.7393   22.1790 C   0  0  0  0  0  0  0  0  0  0  0  0
    7.8593   -5.3772   15.3569 N   0  0  0  0  0  0  0  0  0  0  0  0
    7.4412   -6.9038   16.9283 C   0  0  0  0  0  0  0  0  0  0  0  0
  1 21  4  0
  1 23  4  0
  2  5  1  0
  2 13  4  0
  2 16  4  0
  3  6  4  0
  3  7  4  0
  4 13  4  0
  4 19  4  0
  4 24  4  0
  6 23  4  0
  7 16  1  0
  7 21  4  0
  8 18  1  0
  9 20  4  0
  9 22  4  0
 10 17  1  0
 10 25  1  0
 11 16  4  0
 11 19  4  0
 12 15  4  0
 12 22  4  0
 14 24  4  0
 14 25  4  0
 15 17  4  0
 17 20  4  0
 18 23  1  0
 19 25  4  0
M  END
$$$$

 Created by Python create_sdf_string function

 25 28  0  0  0  0  0  0  0  0999 V2000
   13.1533   -5.2399   21.0682 C   0  0  0  0  0  0  0  0  0  0  0  0
   10.4729   -4.0295   17.6135 C   0  0  0  0  0  0  0  0  0  0  0  0
   10.4789   -4.3641   20.9564 C   0  0  0  0  0  0  0  0  0  0  0  0
    8.7421   -5.1412   16.3650 C   0  0  0  0  0  0  0  0  0  0  0  0
   11.4353   -2.9204   17.8044 C   0  0  0  0  0  0  0  0  0  0  0  0
   11.1529   -4.3028   22.1277 C   0  0  0  0  0  0  0  0  0  0  0  0
   11.1290   -4.8502   19.8052 C   0  0  0  0  0  0  0  0  0  0  0  0
   12.4329   -4.2159   24.4224 C   0  0  0  0  0  0  0  0  0  0  0  0
    3.4740   -9.0387   16.5022 C   0  0  0  0  0  0  0  0  0  0  0  0
    6.8384   -7.9290   17.5282 N   0  0  0  0  0  0  0  0  0  0  0  0
    9.4126   -5.9853   18.4899 C   0  0  0  0  0  0  0  0  0  0  0  0
    4.2064  -10.3242   18.3302 C   0  0  0  0  0  0  0  0  0  0  0  0
    9.6599   -4.1551   16.4796 N   0  0  0  0  0  0  0  0  0  0  0  0
    7.0644   -6.4612   15.7375 N   0  0  0  0  0  0  0  0  0  0  0  0
    5.3549   -9.6322   18.3190 C   0  0  0  0  0  0  0  0  0  0  0  0
   10.3704   -4.9638   18.6510 C   0  0  0  0  0  0  0  0  0  0  0  0
    5.5935   -8.6419   17.4234 C   0  0  0  0  0  0  0  0  0  0  0  0
   13.0726   -4.6648   23.3394 O   0  0  0  0  0  0  0  0  0  0  0  0
    8.5955   -6.0705   17.3996 C   0  0  0  0  0  0  0  0  0  0  0  0
    4.6223   -8.3832   16.5030 C   0  0  0  0  0  0  0  0  0  0  0  0
   12.4690   -5.2624   19.9024 C   0  0  0  0  0  0  0  0  0  0  0  0
    3.2548   -9.9919   17.4189 C   0  0  0  0  0  0  0  0  0  0  0  0
   12.4767   -4.7393   22.1790 C   0  0  0  0  0  0  0  0  0  0  0  0
    7.8593   -5.3772   15.3569 N   0  0  0  0  0  0  0  0  0  0  0  0
    7.4412   -6.9038   16.9283 C   0  0  0  0  0  0  0  0  0  0  0  0
  1 21  4  0
  1 23  4  0
  2  5  1  0
  2 13  4  0
  2 16  4  0
  3  6  4  0
  3  7  4  0
  4 13  4  0
  4 19  4  0
  4 24  4  0
  6 23  4  0
  7 16  1  0
  7 21  4  0
  8 18  1  0
  9 20  4  0
  9 22  4  0
 10 17  1  0
 10 25  1  0
 11 16  4  0
 11 19  4  0
 12 15  4  0
 12 22  4  0
 14 24  4  0
 14 25  4  0
 15 17  4  0
 17 20  4  0
 18 23  1  0
 19 25  4  0
M  END
$$$$

 Created by Python create_sdf_string function

 25 28  0  0  0  0  0  0  0  0999 V2000
   13.1533   -5.2399   21.0682 C   0  0  0  0  0  0  0  0  0  0  0  0
   10.4729   -4.0295   17.6135 C   0  0  0  0  0  0  0  0  0  0  0  0
   10.4789   -4.3641   20.9564 C   0  0  0  0  0  0  0  0  0  0  0  0
    8.7421   -5.1412   16.3650 C   0  0  0  0  0  0  0  0  0  0  0  0
   11.4353   -2.9204   17.8044 C   0  0  0  0  0  0  0  0  0  0  0  0
   11.1529   -4.3028   22.1277 C   0  0  0  0  0  0  0  0  0  0  0  0
   11.1290   -4.8502   19.8052 C   0  0  0  0  0  0  0  0  0  0  0  0
   12.4329   -4.2159   24.4224 C   0  0  0  0  0  0  0  0  0  0  0  0
    3.4740   -9.0387   16.5022 C   0  0  0  0  0  0  0  0  0  0  0  0
    6.8384   -7.9290   17.5282 N   0  0  0  0  0  0  0  0  0  0  0  0
    9.4126   -5.9853   18.4899 C   0  0  0  0  0  0  0  0  0  0  0  0
    4.2064  -10.3242   18.3302 C   0  0  0  0  0  0  0  0  0  0  0  0
    9.6599   -4.1551   16.4796 N   0  0  0  0  0  0  0  0  0  0  0  0
    7.0644   -6.4612   15.7375 N   0  0  0  0  0  0  0  0  0  0  0  0
    5.3549   -9.6322   18.3190 C   0  0  0  0  0  0  0  0  0  0  0  0
   10.3704   -4.9638   18.6510 C   0  0  0  0  0  0  0  0  0  0  0  0
    5.5935   -8.6419   17.4234 C   0  0  0  0  0  0  0  0  0  0  0  0
   13.0726   -4.6648   23.3394 O   0  0  0  0  0  0  0  0  0  0  0  0
    8.5955   -6.0705   17.3996 C   0  0  0  0  0  0  0  0  0  0  0  0
    4.6223   -8.3832   16.5030 C   0  0  0  0  0  0  0  0  0  0  0  0
   12.4690   -5.2624   19.9024 C   0  0  0  0  0  0  0  0  0  0  0  0
    3.2548   -9.9919   17.4189 C   0  0  0  0  0  0  0  0  0  0  0  0
   12.4767   -4.7393   22.1790 C   0  0  0  0  0  0  0  0  0  0  0  0
    7.8593   -5.3772   15.3569 N   0  0  0  0  0  0  0  0  0  0  0  0
    7.4412   -6.9038   16.9283 C   0  0  0  0  0  0  0  0  0  0  0  0
  1 21  4  0
  1 23  4  0
  2  5  1  0
  2 13  4  0
  2 16  4  0
  3  6  4  0
  3  7  4  0
  4 13  4  0
  4 19  4  0
  4 24  4  0
  6 23  4  0
  7 16  1  0
  7 21  4  0
  8 18  1  0
  9 20  4  0
  9 22  4  0
 10 17  1  0
 10 25  1  0
 11 16  4  0
 11 19  4  0
 12 15  4  0
 12 22  4  0
 14 24  4  0
 14 25  4  0
 15 17  4  0
 17 20  4  0
 18 23  1  0
 19 25  4  0
M  END
$$$$

 Created by Python create_sdf_string function

 25 28  0  0  0  0  0  0  0  0999 V2000
   13.1533   -5.2399   21.0682 C   0  0  0  0  0  0  0  0  0  0  0  0
   10.4729   -4.0295   17.6135 C   0  0  0  0  0  0  0  0  0  0  0  0
   10.4789   -4.3641   20.9564 C   0  0  0  0  0  0  0  0  0  0  0  0
    8.7421   -5.1412   16.3650 C   0  0  0  0  0  0  0  0  0  0  0  0
   11.4353   -2.9204   17.8044 C   0  0  0  0  0  0  0  0  0  0  0  0
   11.1529   -4.3028   22.1277 C   0  0  0  0  0  0  0  0  0  0  0  0
   11.1290   -4.8502   19.8052 C   0  0  0  0  0  0  0  0  0  0  0  0
   12.4329   -4.2159   24.4224 C   0  0  0  0  0  0  0  0  0  0  0  0
    3.4740   -9.0387   16.5022 C   0  0  0  0  0  0  0  0  0  0  0  0
    6.8384   -7.9290   17.5282 N   0  0  0  0  0  0  0  0  0  0  0  0
    9.4126   -5.9853   18.4899 C   0  0  0  0  0  0  0  0  0  0  0  0
    4.2064  -10.3242   18.3302 C   0  0  0  0  0  0  0  0  0  0  0  0
    9.6599   -4.1551   16.4796 N   0  0  0  0  0  0  0  0  0  0  0  0
    7.0644   -6.4612   15.7375 N   0  0  0  0  0  0  0  0  0  0  0  0
    5.3549   -9.6322   18.3190 C   0  0  0  0  0  0  0  0  0  0  0  0
   10.3704   -4.9638   18.6510 C   0  0  0  0  0  0  0  0  0  0  0  0
    5.5935   -8.6419   17.4234 C   0  0  0  0  0  0  0  0  0  0  0  0
   13.0726   -4.6648   23.3394 O   0  0  0  0  0  0  0  0  0  0  0  0
    8.5955   -6.0705   17.3996 C   0  0  0  0  0  0  0  0  0  0  0  0
    4.6223   -8.3832   16.5030 C   0  0  0  0  0  0  0  0  0  0  0  0
   12.4690   -5.2624   19.9024 C   0  0  0  0  0  0  0  0  0  0  0  0
    3.2548   -9.9919   17.4189 C   0  0  0  0  0  0  0  0  0  0  0  0
   12.4767   -4.7393   22.1790 C   0  0  0  0  0  0  0  0  0  0  0  0
    7.8593   -5.3772   15.3569 N   0  0  0  0  0  0  0  0  0  0  0  0
    7.4412   -6.9038   16.9283 C   0  0  0  0  0  0  0  0  0  0  0  0
  1 21  4  0
  1 23  4  0
  2  5  1  0
  2 13  4  0
  2 16  4  0
  3  6  4  0
  3  7  4  0
  4 13  4  0
  4 19  4  0
  4 24  4  0
  6 23  4  0
  7 16  1  0
  7 21  4  0
  8 18  1  0
  9 20  4  0
  9 22  4  0
 10 17  1  0
 10 25  1  0
 11 16  4  0
 11 19  4  0
 12 15  4  0
 12 22  4  0
 14 24  4  0
 14 25  4  0
 15 17  4  0
 17 20  4  0
 18 23  1  0
 19 25  4  0
M  END
$$$$

 Created by Python create_sdf_string function

 25 28  0  0  0  0  0  0  0  0999 V2000
   13.1533   -5.2399   21.0682 C   0  0  0  0  0  0  0  0  0  0  0  0
   10.4729   -4.0295   17.6135 C   0  0  0  0  0  0  0  0  0  0  0  0
   10.4789   -4.3641   20.9564 C   0  0  0  0  0  0  0  0  0  0  0  0
    8.7421   -5.1412   16.3650 C   0  0  0  0  0  0  0  0  0  0  0  0
   11.4353   -2.9204   17.8044 C   0  0  0  0  0  0  0  0  0  0  0  0
   11.1529   -4.3028   22.1277 C   0  0  0  0  0  0  0  0  0  0  0  0
   11.1290   -4.8502   19.8052 C   0  0  0  0  0  0  0  0  0  0  0  0
   12.4329   -4.2159   24.4224 C   0  0  0  0  0  0  0  0  0  0  0  0
    3.4740   -9.0387   16.5022 C   0  0  0  0  0  0  0  0  0  0  0  0
    6.8384   -7.9290   17.5282 N   0  0  0  0  0  0  0  0  0  0  0  0
    9.4126   -5.9853   18.4899 C   0  0  0  0  0  0  0  0  0  0  0  0
    4.2064  -10.3242   18.3302 C   0  0  0  0  0  0  0  0  0  0  0  0
    9.6599   -4.1551   16.4796 N   0  0  0  0  0  0  0  0  0  0  0  0
    7.0644   -6.4612   15.7375 N   0  0  0  0  0  0  0  0  0  0  0  0
    5.3549   -9.6322   18.3190 C   0  0  0  0  0  0  0  0  0  0  0  0
   10.3704   -4.9638   18.6510 C   0  0  0  0  0  0  0  0  0  0  0  0
    5.5935   -8.6419   17.4234 C   0  0  0  0  0  0  0  0  0  0  0  0
   13.0726   -4.6648   23.3394 O   0  0  0  0  0  0  0  0  0  0  0  0
    8.5955   -6.0705   17.3996 C   0  0  0  0  0  0  0  0  0  0  0  0
    4.6223   -8.3832   16.5030 C   0  0  0  0  0  0  0  0  0  0  0  0
   12.4690   -5.2624   19.9024 C   0  0  0  0  0  0  0  0  0  0  0  0
    3.2548   -9.9919   17.4189 C   0  0  0  0  0  0  0  0  0  0  0  0
   12.4767   -4.7393   22.1790 C   0  0  0  0  0  0  0  0  0  0  0  0
    7.8593   -5.3772   15.3569 N   0  0  0  0  0  0  0  0  0  0  0  0
    7.4412   -6.9038   16.9283 C   0  0  0  0  0  0  0  0  0  0  0  0
  1 21  4  0
  1 23  4  0
  2  5  1  0
  2 13  4  0
  2 16  4  0
  3  6  4  0
  3  7  4  0
  4 13  4  0
  4 19  4  0
  4 24  4  0
  6 23  4  0
  7 16  1  0
  7 21  4  0
  8 18  1  0
  9 20  4  0
  9 22  4  0
 10 17  1  0
 10 25  1  0
 11 16  4  0
 11 19  4  0
 12 15  4  0
 12 22  4  0
 14 24  4  0
 14 25  4  0
 15 17  4  0
 17 20  4  0
 18 23  1  0
 19 25  4  0
M  END
$$$$

 Created by Python create_sdf_string function

 25 28  0  0  0  0  0  0  0  0999 V2000
   13.1533   -5.2399   21.0682 C   0  0  0  0  0  0  0  0  0  0  0  0
   10.4729   -4.0295   17.6135 C   0  0  0  0  0  0  0  0  0  0  0  0
   10.4789   -4.3641   20.9564 C   0  0  0  0  0  0  0  0  0  0  0  0
    8.7421   -5.1412   16.3650 C   0  0  0  0  0  0  0  0  0  0  0  0
   11.4353   -2.9204   17.8044 C   0  0  0  0  0  0  0  0  0  0  0  0
   11.1529   -4.3028   22.1277 C   0  0  0  0  0  0  0  0  0  0  0  0
   11.1290   -4.8502   19.8052 C   0  0  0  0  0  0  0  0  0  0  0  0
   12.4329   -4.2159   24.4224 C   0  0  0  0  0  0  0  0  0  0  0  0
    3.4740   -9.0387   16.5022 C   0  0  0  0  0  0  0  0  0  0  0  0
    6.8384   -7.9290   17.5282 N   0  0  0  0  0  0  0  0  0  0  0  0
    9.4126   -5.9853   18.4899 C   0  0  0  0  0  0  0  0  0  0  0  0
    4.2064  -10.3242   18.3302 C   0  0  0  0  0  0  0  0  0  0  0  0
    9.6599   -4.1551   16.4796 N   0  0  0  0  0  0  0  0  0  0  0  0
    7.0644   -6.4612   15.7375 N   0  0  0  0  0  0  0  0  0  0  0  0
    5.3549   -9.6322   18.3190 C   0  0  0  0  0  0  0  0  0  0  0  0
   10.3704   -4.9638   18.6510 C   0  0  0  0  0  0  0  0  0  0  0  0
    5.5935   -8.6419   17.4234 C   0  0  0  0  0  0  0  0  0  0  0  0
   13.0726   -4.6648   23.3394 O   0  0  0  0  0  0  0  0  0  0  0  0
    8.5955   -6.0705   17.3996 C   0  0  0  0  0  0  0  0  0  0  0  0
    4.6223   -8.3832   16.5030 C   0  0  0  0  0  0  0  0  0  0  0  0
   12.4690   -5.2624   19.9024 C   0  0  0  0  0  0  0  0  0  0  0  0
    3.2548   -9.9919   17.4189 C   0  0  0  0  0  0  0  0  0  0  0  0
   12.4767   -4.7393   22.1790 C   0  0  0  0  0  0  0  0  0  0  0  0
    7.8593   -5.3772   15.3569 N   0  0  0  0  0  0  0  0  0  0  0  0
    7.4412   -6.9038   16.9283 C   0  0  0  0  0  0  0  0  0  0  0  0
  1 21  4  0
  1 23  4  0
  2  5  1  0
  2 13  4  0
  2 16  4  0
  3  6  4  0
  3  7  4  0
  4 13  4  0
  4 19  4  0
  4 24  4  0
  6 23  4  0
  7 16  1  0
  7 21  4  0
  8 18  1  0
  9 20  4  0
  9 22  4  0
 10 17  1  0
 10 25  1  0
 11 16  4  0
 11 19  4  0
 12 15  4  0
 12 22  4  0
 14 24  4  0
 14 25  4  0
 15 17  4  0
 17 20  4  0
 18 23  1  0
 19 25  4  0
M  END
$$$$

 Created by Python create_sdf_string function

 25 28  0  0  0  0  0  0  0  0999 V2000
   13.1533   -5.2399   21.0682 C   0  0  0  0  0  0  0  0  0  0  0  0
   10.4729   -4.0295   17.6135 C   0  0  0  0  0  0  0  0  0  0  0  0
   10.4789   -4.3641   20.9564 C   0  0  0  0  0  0  0  0  0  0  0  0
    8.7421   -5.1412   16.3650 C   0  0  0  0  0  0  0  0  0  0  0  0
   11.4353   -2.9204   17.8044 C   0  0  0  0  0  0  0  0  0  0  0  0
   11.1529   -4.3028   22.1277 C   0  0  0  0  0  0  0  0  0  0  0  0
   11.1290   -4.8502   19.8052 C   0  0  0  0  0  0  0  0  0  0  0  0
   12.4329   -4.2159   24.4224 C   0  0  0  0  0  0  0  0  0  0  0  0
    3.4740   -9.0387   16.5022 C   0  0  0  0  0  0  0  0  0  0  0  0
    6.8384   -7.9290   17.5282 N   0  0  0  0  0  0  0  0  0  0  0  0
    9.4126   -5.9853   18.4899 C   0  0  0  0  0  0  0  0  0  0  0  0
    4.2064  -10.3242   18.3302 C   0  0  0  0  0  0  0  0  0  0  0  0
    9.6599   -4.1551   16.4796 N   0  0  0  0  0  0  0  0  0  0  0  0
    7.0644   -6.4612   15.7375 N   0  0  0  0  0  0  0  0  0  0  0  0
    5.3549   -9.6322   18.3190 C   0  0  0  0  0  0  0  0  0  0  0  0
   10.3704   -4.9638   18.6510 C   0  0  0  0  0  0  0  0  0  0  0  0
    5.5935   -8.6419   17.4234 C   0  0  0  0  0  0  0  0  0  0  0  0
   13.0726   -4.6648   23.3394 O   0  0  0  0  0  0  0  0  0  0  0  0
    8.5955   -6.0705   17.3996 C   0  0  0  0  0  0  0  0  0  0  0  0
    4.6223   -8.3832   16.5030 C   0  0  0  0  0  0  0  0  0  0  0  0
   12.4690   -5.2624   19.9024 C   0  0  0  0  0  0  0  0  0  0  0  0
    3.2548   -9.9919   17.4189 C   0  0  0  0  0  0  0  0  0  0  0  0
   12.4767   -4.7393   22.1790 C   0  0  0  0  0  0  0  0  0  0  0  0
    7.8593   -5.3772   15.3569 N   0  0  0  0  0  0  0  0  0  0  0  0
    7.4412   -6.9038   16.9283 C   0  0  0  0  0  0  0  0  0  0  0  0
  1 21  4  0
  1 23  4  0
  2  5  1  0
  2 13  4  0
  2 16  4  0
  3  6  4  0
  3  7  4  0
  4 13  4  0
  4 19  4  0
  4 24  4  0
  6 23  4  0
  7 16  1  0
  7 21  4  0
  8 18  1  0
  9 20  4  0
  9 22  4  0
 10 17  1  0
 10 25  1  0
 11 16  4  0
 11 19  4  0
 12 15  4  0
 12 22  4  0
 14 24  4  0
 14 25  4  0
 15 17  4  0
 17 20  4  0
 18 23  1  0
 19 25  4  0
M  END
$$$$

 Created by Python create_sdf_string function

 25 28  0  0  0  0  0  0  0  0999 V2000
   13.1533   -5.2399   21.0682 C   0  0  0  0  0  0  0  0  0  0  0  0
   10.4729   -4.0295   17.6135 C   0  0  0  0  0  0  0  0  0  0  0  0
   10.4789   -4.3641   20.9564 C   0  0  0  0  0  0  0  0  0  0  0  0
    8.7421   -5.1412   16.3650 C   0  0  0  0  0  0  0  0  0  0  0  0
   11.4353   -2.9204   17.8044 C   0  0  0  0  0  0  0  0  0  0  0  0
   11.1529   -4.3028   22.1277 C   0  0  0  0  0  0  0  0  0  0  0  0
   11.1290   -4.8502   19.8052 C   0  0  0  0  0  0  0  0  0  0  0  0
   12.4329   -4.2159   24.4224 C   0  0  0  0  0  0  0  0  0  0  0  0
    3.4740   -9.0387   16.5022 C   0  0  0  0  0  0  0  0  0  0  0  0
    6.8384   -7.9290   17.5282 N   0  0  0  0  0  0  0  0  0  0  0  0
    9.4126   -5.9853   18.4899 C   0  0  0  0  0  0  0  0  0  0  0  0
    4.2064  -10.3242   18.3302 C   0  0  0  0  0  0  0  0  0  0  0  0
    9.6599   -4.1551   16.4796 N   0  0  0  0  0  0  0  0  0  0  0  0
    7.0644   -6.4612   15.7375 N   0  0  0  0  0  0  0  0  0  0  0  0
    5.3549   -9.6322   18.3190 C   0  0  0  0  0  0  0  0  0  0  0  0
   10.3704   -4.9638   18.6510 C   0  0  0  0  0  0  0  0  0  0  0  0
    5.5935   -8.6419   17.4234 C   0  0  0  0  0  0  0  0  0  0  0  0
   13.0726   -4.6648   23.3394 O   0  0  0  0  0  0  0  0  0  0  0  0
    8.5955   -6.0705   17.3996 C   0  0  0  0  0  0  0  0  0  0  0  0
    4.6223   -8.3832   16.5030 C   0  0  0  0  0  0  0  0  0  0  0  0
   12.4690   -5.2624   19.9024 C   0  0  0  0  0  0  0  0  0  0  0  0
    3.2548   -9.9919   17.4189 C   0  0  0  0  0  0  0  0  0  0  0  0
   12.4767   -4.7393   22.1790 C   0  0  0  0  0  0  0  0  0  0  0  0
    7.8593   -5.3772   15.3569 N   0  0  0  0  0  0  0  0  0  0  0  0
    7.4412   -6.9038   16.9283 C   0  0  0  0  0  0  0  0  0  0  0  0
  1 21  4  0
  1 23  4  0
  2  5  1  0
  2 13  4  0
  2 16  4  0
  3  6  4  0
  3  7  4  0
  4 13  4  0
  4 19  4  0
  4 24  4  0
  6 23  4  0
  7 16  1  0
  7 21  4  0
  8 18  1  0
  9 20  4  0
  9 22  4  0
 10 17  1  0
 10 25  1  0
 11 16  4  0
 11 19  4  0
 12 15  4  0
 12 22  4  0
 14 24  4  0
 14 25  4  0
 15 17  4  0
 17 20  4  0
 18 23  1  0
 19 25  4  0
M  END
$$$$

 Created by Python create_sdf_string function

 25 28  0  0  0  0  0  0  0  0999 V2000
   13.1533   -5.2399   21.0682 C   0  0  0  0  0  0  0  0  0  0  0  0
   10.4729   -4.0295   17.6135 C   0  0  0  0  0  0  0  0  0  0  0  0
   10.4789   -4.3641   20.9564 C   0  0  0  0  0  0  0  0  0  0  0  0
    8.7421   -5.1412   16.3650 C   0  0  0  0  0  0  0  0  0  0  0  0
   11.4353   -2.9204   17.8044 C   0  0  0  0  0  0  0  0  0  0  0  0
   11.1529   -4.3028   22.1277 C   0  0  0  0  0  0  0  0  0  0  0  0
   11.1290   -4.8502   19.8052 C   0  0  0  0  0  0  0  0  0  0  0  0
   12.4329   -4.2159   24.4224 C   0  0  0  0  0  0  0  0  0  0  0  0
    3.4740   -9.0387   16.5022 C   0  0  0  0  0  0  0  0  0  0  0  0
    6.8384   -7.9290   17.5282 N   0  0  0  0  0  0  0  0  0  0  0  0
    9.4126   -5.9853   18.4899 C   0  0  0  0  0  0  0  0  0  0  0  0
    4.2064  -10.3242   18.3302 C   0  0  0  0  0  0  0  0  0  0  0  0
    9.6599   -4.1551   16.4796 N   0  0  0  0  0  0  0  0  0  0  0  0
    7.0644   -6.4612   15.7375 N   0  0  0  0  0  0  0  0  0  0  0  0
    5.3549   -9.6322   18.3190 C   0  0  0  0  0  0  0  0  0  0  0  0
   10.3704   -4.9638   18.6510 C   0  0  0  0  0  0  0  0  0  0  0  0
    5.5935   -8.6419   17.4234 C   0  0  0  0  0  0  0  0  0  0  0  0
   13.0726   -4.6648   23.3394 O   0  0  0  0  0  0  0  0  0  0  0  0
    8.5955   -6.0705   17.3996 C   0  0  0  0  0  0  0  0  0  0  0  0
    4.6223   -8.3832   16.5030 C   0  0  0  0  0  0  0  0  0  0  0  0
   12.4690   -5.2624   19.9024 C   0  0  0  0  0  0  0  0  0  0  0  0
    3.2548   -9.9919   17.4189 C   0  0  0  0  0  0  0  0  0  0  0  0
   12.4767   -4.7393   22.1790 C   0  0  0  0  0  0  0  0  0  0  0  0
    7.8593   -5.3772   15.3569 N   0  0  0  0  0  0  0  0  0  0  0  0
    7.4412   -6.9038   16.9283 C   0  0  0  0  0  0  0  0  0  0  0  0
  1 21  4  0
  1 23  4  0
  2  5  1  0
  2 13  4  0
  2 16  4  0
  3  6  4  0
  3  7  4  0
  4 13  4  0
  4 19  4  0
  4 24  4  0
  6 23  4  0
  7 16  1  0
  7 21  4  0
  8 18  1  0
  9 20  4  0
  9 22  4  0
 10 17  1  0
 10 25  1  0
 11 16  4  0
 11 19  4  0
 12 15  4  0
 12 22  4  0
 14 24  4  0
 14 25  4  0
 15 17  4  0
 17 20  4  0
 18 23  1  0
 19 25  4  0
M  END
$$$$

 Created by Python create_sdf_string function

 25 28  0  0  0  0  0  0  0  0999 V2000
   13.1533   -5.2399   21.0682 C   0  0  0  0  0  0  0  0  0  0  0  0
   10.4729   -4.0295   17.6135 C   0  0  0  0  0  0  0  0  0  0  0  0
   10.4789   -4.3641   20.9564 C   0  0  0  0  0  0  0  0  0  0  0  0
    8.7421   -5.1412   16.3650 C   0  0  0  0  0  0  0  0  0  0  0  0
   11.4353   -2.9204   17.8044 C   0  0  0  0  0  0  0  0  0  0  0  0
   11.1529   -4.3028   22.1277 C   0  0  0  0  0  0  0  0  0  0  0  0
   11.1290   -4.8502   19.8052 C   0  0  0  0  0  0  0  0  0  0  0  0
   12.4329   -4.2159   24.4224 C   0  0  0  0  0  0  0  0  0  0  0  0
    3.4740   -9.0387   16.5022 C   0  0  0  0  0  0  0  0  0  0  0  0
    6.8384   -7.9290   17.5282 N   0  0  0  0  0  0  0  0  0  0  0  0
    9.4126   -5.9853   18.4899 C   0  0  0  0  0  0  0  0  0  0  0  0
    4.2064  -10.3242   18.3302 C   0  0  0  0  0  0  0  0  0  0  0  0
    9.6599   -4.1551   16.4796 N   0  0  0  0  0  0  0  0  0  0  0  0
    7.0644   -6.4612   15.7375 N   0  0  0  0  0  0  0  0  0  0  0  0
    5.3549   -9.6322   18.3190 C   0  0  0  0  0  0  0  0  0  0  0  0
   10.3704   -4.9638   18.6510 C   0  0  0  0  0  0  0  0  0  0  0  0
    5.5935   -8.6419   17.4234 C   0  0  0  0  0  0  0  0  0  0  0  0
   13.0726   -4.6648   23.3394 O   0  0  0  0  0  0  0  0  0  0  0  0
    8.5955   -6.0705   17.3996 C   0  0  0  0  0  0  0  0  0  0  0  0
    4.6223   -8.3832   16.5030 C   0  0  0  0  0  0  0  0  0  0  0  0
   12.4690   -5.2624   19.9024 C   0  0  0  0  0  0  0  0  0  0  0  0
    3.2548   -9.9919   17.4189 C   0  0  0  0  0  0  0  0  0  0  0  0
   12.4767   -4.7393   22.1790 C   0  0  0  0  0  0  0  0  0  0  0  0
    7.8593   -5.3772   15.3569 N   0  0  0  0  0  0  0  0  0  0  0  0
    7.4412   -6.9038   16.9283 C   0  0  0  0  0  0  0  0  0  0  0  0
  1 21  4  0
  1 23  4  0
  2  5  1  0
  2 13  4  0
  2 16  4  0
  3  6  4  0
  3  7  4  0
  4 13  4  0
  4 19  4  0
  4 24  4  0
  6 23  4  0
  7 16  1  0
  7 21  4  0
  8 18  1  0
  9 20  4  0
  9 22  4  0
 10 17  1  0
 10 25  1  0
 11 16  4  0
 11 19  4  0
 12 15  4  0
 12 22  4  0
 14 24  4  0
 14 25  4  0
 15 17  4  0
 17 20  4  0
 18 23  1  0
 19 25  4  0
M  END
$$$$

 Created by Python create_sdf_string function

 25 28  0  0  0  0  0  0  0  0999 V2000
   13.1533   -5.2399   21.0682 C   0  0  0  0  0  0  0  0  0  0  0  0
   10.4729   -4.0295   17.6135 C   0  0  0  0  0  0  0  0  0  0  0  0
   10.4789   -4.3641   20.9564 C   0  0  0  0  0  0  0  0  0  0  0  0
    8.7421   -5.1412   16.3650 C   0  0  0  0  0  0  0  0  0  0  0  0
   11.4353   -2.9204   17.8044 C   0  0  0  0  0  0  0  0  0  0  0  0
   11.1529   -4.3028   22.1277 C   0  0  0  0  0  0  0  0  0  0  0  0
   11.1290   -4.8502   19.8052 C   0  0  0  0  0  0  0  0  0  0  0  0
   12.4329   -4.2159   24.4224 C   0  0  0  0  0  0  0  0  0  0  0  0
    3.4740   -9.0387   16.5022 C   0  0  0  0  0  0  0  0  0  0  0  0
    6.8384   -7.9290   17.5282 N   0  0  0  0  0  0  0  0  0  0  0  0
    9.4126   -5.9853   18.4899 C   0  0  0  0  0  0  0  0  0  0  0  0
    4.2064  -10.3242   18.3302 C   0  0  0  0  0  0  0  0  0  0  0  0
    9.6599   -4.1551   16.4796 N   0  0  0  0  0  0  0  0  0  0  0  0
    7.0644   -6.4612   15.7375 N   0  0  0  0  0  0  0  0  0  0  0  0
    5.3549   -9.6322   18.3190 C   0  0  0  0  0  0  0  0  0  0  0  0
   10.3704   -4.9638   18.6510 C   0  0  0  0  0  0  0  0  0  0  0  0
    5.5935   -8.6419   17.4234 C   0  0  0  0  0  0  0  0  0  0  0  0
   13.0726   -4.6648   23.3394 O   0  0  0  0  0  0  0  0  0  0  0  0
    8.5955   -6.0705   17.3996 C   0  0  0  0  0  0  0  0  0  0  0  0
    4.6223   -8.3832   16.5030 C   0  0  0  0  0  0  0  0  0  0  0  0
   12.4690   -5.2624   19.9024 C   0  0  0  0  0  0  0  0  0  0  0  0
    3.2548   -9.9919   17.4189 C   0  0  0  0  0  0  0  0  0  0  0  0
   12.4767   -4.7393   22.1790 C   0  0  0  0  0  0  0  0  0  0  0  0
    7.8593   -5.3772   15.3569 N   0  0  0  0  0  0  0  0  0  0  0  0
    7.4412   -6.9038   16.9283 C   0  0  0  0  0  0  0  0  0  0  0  0
  1 21  4  0
  1 23  4  0
  2  5  1  0
  2 13  4  0
  2 16  4  0
  3  6  4  0
  3  7  4  0
  4 13  4  0
  4 19  4  0
  4 24  4  0
  6 23  4  0
  7 16  1  0
  7 21  4  0
  8 18  1  0
  9 20  4  0
  9 22  4  0
 10 17  1  0
 10 25  1  0
 11 16  4  0
 11 19  4  0
 12 15  4  0
 12 22  4  0
 14 24  4  0
 14 25  4  0
 15 17  4  0
 17 20  4  0
 18 23  1  0
 19 25  4  0
M  END
$$$$

 Created by Python create_sdf_string function

 25 28  0  0  0  0  0  0  0  0999 V2000
   13.1533   -5.2399   21.0682 C   0  0  0  0  0  0  0  0  0  0  0  0
   10.4729   -4.0295   17.6135 C   0  0  0  0  0  0  0  0  0  0  0  0
   10.4789   -4.3641   20.9564 C   0  0  0  0  0  0  0  0  0  0  0  0
    8.7421   -5.1412   16.3650 C   0  0  0  0  0  0  0  0  0  0  0  0
   11.4353   -2.9204   17.8044 C   0  0  0  0  0  0  0  0  0  0  0  0
   11.1529   -4.3028   22.1277 C   0  0  0  0  0  0  0  0  0  0  0  0
   11.1290   -4.8502   19.8052 C   0  0  0  0  0  0  0  0  0  0  0  0
   12.4329   -4.2159   24.4224 C   0  0  0  0  0  0  0  0  0  0  0  0
    3.4740   -9.0387   16.5022 C   0  0  0  0  0  0  0  0  0  0  0  0
    6.8384   -7.9290   17.5282 N   0  0  0  0  0  0  0  0  0  0  0  0
    9.4126   -5.9853   18.4899 C   0  0  0  0  0  0  0  0  0  0  0  0
    4.2064  -10.3242   18.3302 C   0  0  0  0  0  0  0  0  0  0  0  0
    9.6599   -4.1551   16.4796 N   0  0  0  0  0  0  0  0  0  0  0  0
    7.0644   -6.4612   15.7375 N   0  0  0  0  0  0  0  0  0  0  0  0
    5.3549   -9.6322   18.3190 C   0  0  0  0  0  0  0  0  0  0  0  0
   10.3704   -4.9638   18.6510 C   0  0  0  0  0  0  0  0  0  0  0  0
    5.5935   -8.6419   17.4234 C   0  0  0  0  0  0  0  0  0  0  0  0
   13.0726   -4.6648   23.3394 O   0  0  0  0  0  0  0  0  0  0  0  0
    8.5955   -6.0705   17.3996 C   0  0  0  0  0  0  0  0  0  0  0  0
    4.6223   -8.3832   16.5030 C   0  0  0  0  0  0  0  0  0  0  0  0
   12.4690   -5.2624   19.9024 C   0  0  0  0  0  0  0  0  0  0  0  0
    3.2548   -9.9919   17.4189 C   0  0  0  0  0  0  0  0  0  0  0  0
   12.4767   -4.7393   22.1790 C   0  0  0  0  0  0  0  0  0  0  0  0
    7.8593   -5.3772   15.3569 N   0  0  0  0  0  0  0  0  0  0  0  0
    7.4412   -6.9038   16.9283 C   0  0  0  0  0  0  0  0  0  0  0  0
  1 21  4  0
  1 23  4  0
  2  5  1  0
  2 13  4  0
  2 16  4  0
  3  6  4  0
  3  7  4  0
  4 13  4  0
  4 19  4  0
  4 24  4  0
  6 23  4  0
  7 16  1  0
  7 21  4  0
  8 18  1  0
  9 20  4  0
  9 22  4  0
 10 17  1  0
 10 25  1  0
 11 16  4  0
 11 19  4  0
 12 15  4  0
 12 22  4  0
 14 24  4  0
 14 25  4  0
 15 17  4  0
 17 20  4  0
 18 23  1  0
 19 25  4  0
M  END
$$$$

 Created by Python create_sdf_string function

 25 28  0  0  0  0  0  0  0  0999 V2000
   13.1533   -5.2399   21.0682 C   0  0  0  0  0  0  0  0  0  0  0  0
   10.4729   -4.0295   17.6135 C   0  0  0  0  0  0  0  0  0  0  0  0
   10.4789   -4.3641   20.9564 C   0  0  0  0  0  0  0  0  0  0  0  0
    8.7421   -5.1412   16.3650 C   0  0  0  0  0  0  0  0  0  0  0  0
   11.4353   -2.9204   17.8044 C   0  0  0  0  0  0  0  0  0  0  0  0
   11.1529   -4.3028   22.1277 C   0  0  0  0  0  0  0  0  0  0  0  0
   11.1290   -4.8502   19.8052 C   0  0  0  0  0  0  0  0  0  0  0  0
   12.4329   -4.2159   24.4224 C   0  0  0  0  0  0  0  0  0  0  0  0
    3.4740   -9.0387   16.5022 C   0  0  0  0  0  0  0  0  0  0  0  0
    6.8384   -7.9290   17.5282 N   0  0  0  0  0  0  0  0  0  0  0  0
    9.4126   -5.9853   18.4899 C   0  0  0  0  0  0  0  0  0  0  0  0
    4.2064  -10.3242   18.3302 C   0  0  0  0  0  0  0  0  0  0  0  0
    9.6599   -4.1551   16.4796 N   0  0  0  0  0  0  0  0  0  0  0  0
    7.0644   -6.4612   15.7375 N   0  0  0  0  0  0  0  0  0  0  0  0
    5.3549   -9.6322   18.3190 C   0  0  0  0  0  0  0  0  0  0  0  0
   10.3704   -4.9638   18.6510 C   0  0  0  0  0  0  0  0  0  0  0  0
    5.5935   -8.6419   17.4234 C   0  0  0  0  0  0  0  0  0  0  0  0
   13.0726   -4.6648   23.3394 O   0  0  0  0  0  0  0  0  0  0  0  0
    8.5955   -6.0705   17.3996 C   0  0  0  0  0  0  0  0  0  0  0  0
    4.6223   -8.3832   16.5030 C   0  0  0  0  0  0  0  0  0  0  0  0
   12.4690   -5.2624   19.9024 C   0  0  0  0  0  0  0  0  0  0  0  0
    3.2548   -9.9919   17.4189 C   0  0  0  0  0  0  0  0  0  0  0  0
   12.4767   -4.7393   22.1790 C   0  0  0  0  0  0  0  0  0  0  0  0
    7.8593   -5.3772   15.3569 N   0  0  0  0  0  0  0  0  0  0  0  0
    7.4412   -6.9038   16.9283 C   0  0  0  0  0  0  0  0  0  0  0  0
  1 21  4  0
  1 23  4  0
  2  5  1  0
  2 13  4  0
  2 16  4  0
  3  6  4  0
  3  7  4  0
  4 13  4  0
  4 19  4  0
  4 24  4  0
  6 23  4  0
  7 16  1  0
  7 21  4  0
  8 18  1  0
  9 20  4  0
  9 22  4  0
 10 17  1  0
 10 25  1  0
 11 16  4  0
 11 19  4  0
 12 15  4  0
 12 22  4  0
 14 24  4  0
 14 25  4  0
 15 17  4  0
 17 20  4  0
 18 23  1  0
 19 25  4  0
M  END
$$$$

 Created by Python create_sdf_string function

 25 28  0  0  0  0  0  0  0  0999 V2000
   13.1533   -5.2399   21.0682 C   0  0  0  0  0  0  0  0  0  0  0  0
   10.4729   -4.0295   17.6135 C   0  0  0  0  0  0  0  0  0  0  0  0
   10.4789   -4.3641   20.9564 C   0  0  0  0  0  0  0  0  0  0  0  0
    8.7421   -5.1412   16.3650 C   0  0  0  0  0  0  0  0  0  0  0  0
   11.4353   -2.9204   17.8044 C   0  0  0  0  0  0  0  0  0  0  0  0
   11.1529   -4.3028   22.1277 C   0  0  0  0  0  0  0  0  0  0  0  0
   11.1290   -4.8502   19.8052 C   0  0  0  0  0  0  0  0  0  0  0  0
   12.4329   -4.2159   24.4224 C   0  0  0  0  0  0  0  0  0  0  0  0
    3.4740   -9.0387   16.5022 C   0  0  0  0  0  0  0  0  0  0  0  0
    6.8384   -7.9290   17.5282 N   0  0  0  0  0  0  0  0  0  0  0  0
    9.4126   -5.9853   18.4899 C   0  0  0  0  0  0  0  0  0  0  0  0
    4.2064  -10.3242   18.3302 C   0  0  0  0  0  0  0  0  0  0  0  0
    9.6599   -4.1551   16.4796 N   0  0  0  0  0  0  0  0  0  0  0  0
    7.0644   -6.4612   15.7375 N   0  0  0  0  0  0  0  0  0  0  0  0
    5.3549   -9.6322   18.3190 C   0  0  0  0  0  0  0  0  0  0  0  0
   10.3704   -4.9638   18.6510 C   0  0  0  0  0  0  0  0  0  0  0  0
    5.5935   -8.6419   17.4234 C   0  0  0  0  0  0  0  0  0  0  0  0
   13.0726   -4.6648   23.3394 O   0  0  0  0  0  0  0  0  0  0  0  0
    8.5955   -6.0705   17.3996 C   0  0  0  0  0  0  0  0  0  0  0  0
    4.6223   -8.3832   16.5030 C   0  0  0  0  0  0  0  0  0  0  0  0
   12.4690   -5.2624   19.9024 C   0  0  0  0  0  0  0  0  0  0  0  0
    3.2548   -9.9919   17.4189 C   0  0  0  0  0  0  0  0  0  0  0  0
   12.4767   -4.7393   22.1790 C   0  0  0  0  0  0  0  0  0  0  0  0
    7.8593   -5.3772   15.3569 N   0  0  0  0  0  0  0  0  0  0  0  0
    7.4412   -6.9038   16.9283 C   0  0  0  0  0  0  0  0  0  0  0  0
  1 21  4  0
  1 23  4  0
  2  5  1  0
  2 13  4  0
  2 16  4  0
  3  6  4  0
  3  7  4  0
  4 13  4  0
  4 19  4  0
  4 24  4  0
  6 23  4  0
  7 16  1  0
  7 21  4  0
  8 18  1  0
  9 20  4  0
  9 22  4  0
 10 17  1  0
 10 25  1  0
 11 16  4  0
 11 19  4  0
 12 15  4  0
 12 22  4  0
 14 24  4  0
 14 25  4  0
 15 17  4  0
 17 20  4  0
 18 23  1  0
 19 25  4  0
M  END
$$$$

 Created by Python create_sdf_string function

 25 28  0  0  0  0  0  0  0  0999 V2000
   13.1533   -5.2399   21.0682 C   0  0  0  0  0  0  0  0  0  0  0  0
   10.4729   -4.0295   17.6135 C   0  0  0  0  0  0  0  0  0  0  0  0
   10.4789   -4.3641   20.9564 C   0  0  0  0  0  0  0  0  0  0  0  0
    8.7421   -5.1412   16.3650 C   0  0  0  0  0  0  0  0  0  0  0  0
   11.4353   -2.9204   17.8044 C   0  0  0  0  0  0  0  0  0  0  0  0
   11.1529   -4.3028   22.1277 C   0  0  0  0  0  0  0  0  0  0  0  0
   11.1290   -4.8502   19.8052 C   0  0  0  0  0  0  0  0  0  0  0  0
   12.4329   -4.2159   24.4224 C   0  0  0  0  0  0  0  0  0  0  0  0
    3.4740   -9.0387   16.5022 C   0  0  0  0  0  0  0  0  0  0  0  0
    6.8384   -7.9290   17.5282 N   0  0  0  0  0  0  0  0  0  0  0  0
    9.4126   -5.9853   18.4899 C   0  0  0  0  0  0  0  0  0  0  0  0
    4.2064  -10.3242   18.3302 C   0  0  0  0  0  0  0  0  0  0  0  0
    9.6599   -4.1551   16.4796 N   0  0  0  0  0  0  0  0  0  0  0  0
    7.0644   -6.4612   15.7375 N   0  0  0  0  0  0  0  0  0  0  0  0
    5.3549   -9.6322   18.3190 C   0  0  0  0  0  0  0  0  0  0  0  0
   10.3704   -4.9638   18.6510 C   0  0  0  0  0  0  0  0  0  0  0  0
    5.5935   -8.6419   17.4234 C   0  0  0  0  0  0  0  0  0  0  0  0
   13.0726   -4.6648   23.3394 O   0  0  0  0  0  0  0  0  0  0  0  0
    8.5955   -6.0705   17.3996 C   0  0  0  0  0  0  0  0  0  0  0  0
    4.6223   -8.3832   16.5030 C   0  0  0  0  0  0  0  0  0  0  0  0
   12.4690   -5.2624   19.9024 C   0  0  0  0  0  0  0  0  0  0  0  0
    3.2548   -9.9919   17.4189 C   0  0  0  0  0  0  0  0  0  0  0  0
   12.4767   -4.7393   22.1790 C   0  0  0  0  0  0  0  0  0  0  0  0
    7.8593   -5.3772   15.3569 N   0  0  0  0  0  0  0  0  0  0  0  0
    7.4412   -6.9038   16.9283 C   0  0  0  0  0  0  0  0  0  0  0  0
  1 21  4  0
  1 23  4  0
  2  5  1  0
  2 13  4  0
  2 16  4  0
  3  6  4  0
  3  7  4  0
  4 13  4  0
  4 19  4  0
  4 24  4  0
  6 23  4  0
  7 16  1  0
  7 21  4  0
  8 18  1  0
  9 20  4  0
  9 22  4  0
 10 17  1  0
 10 25  1  0
 11 16  4  0
 11 19  4  0
 12 15  4  0
 12 22  4  0
 14 24  4  0
 14 25  4  0
 15 17  4  0
 17 20  4  0
 18 23  1  0
 19 25  4  0
M  END
$$$$

 Created by Python create_sdf_string function

 25 28  0  0  0  0  0  0  0  0999 V2000
   13.1533   -5.2399   21.0682 C   0  0  0  0  0  0  0  0  0  0  0  0
   10.4729   -4.0295   17.6135 C   0  0  0  0  0  0  0  0  0  0  0  0
   10.4789   -4.3641   20.9564 C   0  0  0  0  0  0  0  0  0  0  0  0
    8.7421   -5.1412   16.3650 C   0  0  0  0  0  0  0  0  0  0  0  0
   11.4353   -2.9204   17.8044 C   0  0  0  0  0  0  0  0  0  0  0  0
   11.1529   -4.3028   22.1277 C   0  0  0  0  0  0  0  0  0  0  0  0
   11.1290   -4.8502   19.8052 C   0  0  0  0  0  0  0  0  0  0  0  0
   12.4329   -4.2159   24.4224 C   0  0  0  0  0  0  0  0  0  0  0  0
    3.4740   -9.0387   16.5022 C   0  0  0  0  0  0  0  0  0  0  0  0
    6.8384   -7.9290   17.5282 N   0  0  0  0  0  0  0  0  0  0  0  0
    9.4126   -5.9853   18.4899 C   0  0  0  0  0  0  0  0  0  0  0  0
    4.2064  -10.3242   18.3302 C   0  0  0  0  0  0  0  0  0  0  0  0
    9.6599   -4.1551   16.4796 N   0  0  0  0  0  0  0  0  0  0  0  0
    7.0644   -6.4612   15.7375 N   0  0  0  0  0  0  0  0  0  0  0  0
    5.3549   -9.6322   18.3190 C   0  0  0  0  0  0  0  0  0  0  0  0
   10.3704   -4.9638   18.6510 C   0  0  0  0  0  0  0  0  0  0  0  0
    5.5935   -8.6419   17.4234 C   0  0  0  0  0  0  0  0  0  0  0  0
   13.0726   -4.6648   23.3394 O   0  0  0  0  0  0  0  0  0  0  0  0
    8.5955   -6.0705   17.3996 C   0  0  0  0  0  0  0  0  0  0  0  0
    4.6223   -8.3832   16.5030 C   0  0  0  0  0  0  0  0  0  0  0  0
   12.4690   -5.2624   19.9024 C   0  0  0  0  0  0  0  0  0  0  0  0
    3.2548   -9.9919   17.4189 C   0  0  0  0  0  0  0  0  0  0  0  0
   12.4767   -4.7393   22.1790 C   0  0  0  0  0  0  0  0  0  0  0  0
    7.8593   -5.3772   15.3569 N   0  0  0  0  0  0  0  0  0  0  0  0
    7.4412   -6.9038   16.9283 C   0  0  0  0  0  0  0  0  0  0  0  0
  1 21  4  0
  1 23  4  0
  2  5  1  0
  2 13  4  0
  2 16  4  0
  3  6  4  0
  3  7  4  0
  4 13  4  0
  4 19  4  0
  4 24  4  0
  6 23  4  0
  7 16  1  0
  7 21  4  0
  8 18  1  0
  9 20  4  0
  9 22  4  0
 10 17  1  0
 10 25  1  0
 11 16  4  0
 11 19  4  0
 12 15  4  0
 12 22  4  0
 14 24  4  0
 14 25  4  0
 15 17  4  0
 17 20  4  0
 18 23  1  0
 19 25  4  0
M  END
$$$$

 Created by Python create_sdf_string function

 25 28  0  0  0  0  0  0  0  0999 V2000
   13.1533   -5.2399   21.0682 C   0  0  0  0  0  0  0  0  0  0  0  0
   10.4729   -4.0295   17.6135 C   0  0  0  0  0  0  0  0  0  0  0  0
   10.4789   -4.3641   20.9564 C   0  0  0  0  0  0  0  0  0  0  0  0
    8.7421   -5.1412   16.3650 C   0  0  0  0  0  0  0  0  0  0  0  0
   11.4353   -2.9204   17.8044 C   0  0  0  0  0  0  0  0  0  0  0  0
   11.1529   -4.3028   22.1277 C   0  0  0  0  0  0  0  0  0  0  0  0
   11.1290   -4.8502   19.8052 C   0  0  0  0  0  0  0  0  0  0  0  0
   12.4329   -4.2159   24.4224 C   0  0  0  0  0  0  0  0  0  0  0  0
    3.4740   -9.0387   16.5022 C   0  0  0  0  0  0  0  0  0  0  0  0
    6.8384   -7.9290   17.5282 N   0  0  0  0  0  0  0  0  0  0  0  0
    9.4126   -5.9853   18.4899 C   0  0  0  0  0  0  0  0  0  0  0  0
    4.2064  -10.3242   18.3302 C   0  0  0  0  0  0  0  0  0  0  0  0
    9.6599   -4.1551   16.4796 N   0  0  0  0  0  0  0  0  0  0  0  0
    7.0644   -6.4612   15.7375 N   0  0  0  0  0  0  0  0  0  0  0  0
    5.3549   -9.6322   18.3190 C   0  0  0  0  0  0  0  0  0  0  0  0
   10.3704   -4.9638   18.6510 C   0  0  0  0  0  0  0  0  0  0  0  0
    5.5935   -8.6419   17.4234 C   0  0  0  0  0  0  0  0  0  0  0  0
   13.0726   -4.6648   23.3394 O   0  0  0  0  0  0  0  0  0  0  0  0
    8.5955   -6.0705   17.3996 C   0  0  0  0  0  0  0  0  0  0  0  0
    4.6223   -8.3832   16.5030 C   0  0  0  0  0  0  0  0  0  0  0  0
   12.4690   -5.2624   19.9024 C   0  0  0  0  0  0  0  0  0  0  0  0
    3.2548   -9.9919   17.4189 C   0  0  0  0  0  0  0  0  0  0  0  0
   12.4767   -4.7393   22.1790 C   0  0  0  0  0  0  0  0  0  0  0  0
    7.8593   -5.3772   15.3569 N   0  0  0  0  0  0  0  0  0  0  0  0
    7.4412   -6.9038   16.9283 C   0  0  0  0  0  0  0  0  0  0  0  0
  1 21  4  0
  1 23  4  0
  2  5  1  0
  2 13  4  0
  2 16  4  0
  3  6  4  0
  3  7  4  0
  4 13  4  0
  4 19  4  0
  4 24  4  0
  6 23  4  0
  7 16  1  0
  7 21  4  0
  8 18  1  0
  9 20  4  0
  9 22  4  0
 10 17  1  0
 10 25  1  0
 11 16  4  0
 11 19  4  0
 12 15  4  0
 12 22  4  0
 14 24  4  0
 14 25  4  0
 15 17  4  0
 17 20  4  0
 18 23  1  0
 19 25  4  0
M  END
$$$$

 Created by Python create_sdf_string function

 25 28  0  0  0  0  0  0  0  0999 V2000
   13.1533   -5.2399   21.0682 C   0  0  0  0  0  0  0  0  0  0  0  0
   10.4729   -4.0295   17.6135 C   0  0  0  0  0  0  0  0  0  0  0  0
   10.4789   -4.3641   20.9564 C   0  0  0  0  0  0  0  0  0  0  0  0
    8.7421   -5.1412   16.3650 C   0  0  0  0  0  0  0  0  0  0  0  0
   11.4353   -2.9204   17.8044 C   0  0  0  0  0  0  0  0  0  0  0  0
   11.1529   -4.3028   22.1277 C   0  0  0  0  0  0  0  0  0  0  0  0
   11.1290   -4.8502   19.8052 C   0  0  0  0  0  0  0  0  0  0  0  0
   12.4329   -4.2159   24.4224 C   0  0  0  0  0  0  0  0  0  0  0  0
    3.4740   -9.0387   16.5022 C   0  0  0  0  0  0  0  0  0  0  0  0
    6.8384   -7.9290   17.5282 N   0  0  0  0  0  0  0  0  0  0  0  0
    9.4126   -5.9853   18.4899 C   0  0  0  0  0  0  0  0  0  0  0  0
    4.2064  -10.3242   18.3302 C   0  0  0  0  0  0  0  0  0  0  0  0
    9.6599   -4.1551   16.4796 N   0  0  0  0  0  0  0  0  0  0  0  0
    7.0644   -6.4612   15.7375 N   0  0  0  0  0  0  0  0  0  0  0  0
    5.3549   -9.6322   18.3190 C   0  0  0  0  0  0  0  0  0  0  0  0
   10.3704   -4.9638   18.6510 C   0  0  0  0  0  0  0  0  0  0  0  0
    5.5935   -8.6419   17.4234 C   0  0  0  0  0  0  0  0  0  0  0  0
   13.0726   -4.6648   23.3394 O   0  0  0  0  0  0  0  0  0  0  0  0
    8.5955   -6.0705   17.3996 C   0  0  0  0  0  0  0  0  0  0  0  0
    4.6223   -8.3832   16.5030 C   0  0  0  0  0  0  0  0  0  0  0  0
   12.4690   -5.2624   19.9024 C   0  0  0  0  0  0  0  0  0  0  0  0
    3.2548   -9.9919   17.4189 C   0  0  0  0  0  0  0  0  0  0  0  0
   12.4767   -4.7393   22.1790 C   0  0  0  0  0  0  0  0  0  0  0  0
    7.8593   -5.3772   15.3569 N   0  0  0  0  0  0  0  0  0  0  0  0
    7.4412   -6.9038   16.9283 C   0  0  0  0  0  0  0  0  0  0  0  0
  1 21  4  0
  1 23  4  0
  2  5  1  0
  2 13  4  0
  2 16  4  0
  3  6  4  0
  3  7  4  0
  4 13  4  0
  4 19  4  0
  4 24  4  0
  6 23  4  0
  7 16  1  0
  7 21  4  0
  8 18  1  0
  9 20  4  0
  9 22  4  0
 10 17  1  0
 10 25  1  0
 11 16  4  0
 11 19  4  0
 12 15  4  0
 12 22  4  0
 14 24  4  0
 14 25  4  0
 15 17  4  0
 17 20  4  0
 18 23  1  0
 19 25  4  0
M  END
$$$$

 Created by Python create_sdf_string function

 25 28  0  0  0  0  0  0  0  0999 V2000
   13.1533   -5.2399   21.0682 C   0  0  0  0  0  0  0  0  0  0  0  0
   10.4729   -4.0295   17.6135 C   0  0  0  0  0  0  0  0  0  0  0  0
   10.4789   -4.3641   20.9564 C   0  0  0  0  0  0  0  0  0  0  0  0
    8.7421   -5.1412   16.3650 C   0  0  0  0  0  0  0  0  0  0  0  0
   11.4353   -2.9204   17.8044 C   0  0  0  0  0  0  0  0  0  0  0  0
   11.1529   -4.3028   22.1277 C   0  0  0  0  0  0  0  0  0  0  0  0
   11.1290   -4.8502   19.8052 C   0  0  0  0  0  0  0  0  0  0  0  0
   12.4329   -4.2159   24.4224 C   0  0  0  0  0  0  0  0  0  0  0  0
    3.4740   -9.0387   16.5022 C   0  0  0  0  0  0  0  0  0  0  0  0
    6.8384   -7.9290   17.5282 N   0  0  0  0  0  0  0  0  0  0  0  0
    9.4126   -5.9853   18.4899 C   0  0  0  0  0  0  0  0  0  0  0  0
    4.2064  -10.3242   18.3302 C   0  0  0  0  0  0  0  0  0  0  0  0
    9.6599   -4.1551   16.4796 N   0  0  0  0  0  0  0  0  0  0  0  0
    7.0644   -6.4612   15.7375 N   0  0  0  0  0  0  0  0  0  0  0  0
    5.3549   -9.6322   18.3190 C   0  0  0  0  0  0  0  0  0  0  0  0
   10.3704   -4.9638   18.6510 C   0  0  0  0  0  0  0  0  0  0  0  0
    5.5935   -8.6419   17.4234 C   0  0  0  0  0  0  0  0  0  0  0  0
   13.0726   -4.6648   23.3394 O   0  0  0  0  0  0  0  0  0  0  0  0
    8.5955   -6.0705   17.3996 C   0  0  0  0  0  0  0  0  0  0  0  0
    4.6223   -8.3832   16.5030 C   0  0  0  0  0  0  0  0  0  0  0  0
   12.4690   -5.2624   19.9024 C   0  0  0  0  0  0  0  0  0  0  0  0
    3.2548   -9.9919   17.4189 C   0  0  0  0  0  0  0  0  0  0  0  0
   12.4767   -4.7393   22.1790 C   0  0  0  0  0  0  0  0  0  0  0  0
    7.8593   -5.3772   15.3569 N   0  0  0  0  0  0  0  0  0  0  0  0
    7.4412   -6.9038   16.9283 C   0  0  0  0  0  0  0  0  0  0  0  0
  1 21  4  0
  1 23  4  0
  2  5  1  0
  2 13  4  0
  2 16  4  0
  3  6  4  0
  3  7  4  0
  4 13  4  0
  4 19  4  0
  4 24  4  0
  6 23  4  0
  7 16  1  0
  7 21  4  0
  8 18  1  0
  9 20  4  0
  9 22  4  0
 10 17  1  0
 10 25  1  0
 11 16  4  0
 11 19  4  0
 12 15  4  0
 12 22  4  0
 14 24  4  0
 14 25  4  0
 15 17  4  0
 17 20  4  0
 18 23  1  0
 19 25  4  0
M  END
$$$$

 Created by Python create_sdf_string function

 25 28  0  0  0  0  0  0  0  0999 V2000
   13.1533   -5.2399   21.0682 C   0  0  0  0  0  0  0  0  0  0  0  0
   10.4729   -4.0295   17.6135 C   0  0  0  0  0  0  0  0  0  0  0  0
   10.4789   -4.3641   20.9564 C   0  0  0  0  0  0  0  0  0  0  0  0
    8.7421   -5.1412   16.3650 C   0  0  0  0  0  0  0  0  0  0  0  0
   11.4353   -2.9204   17.8044 C   0  0  0  0  0  0  0  0  0  0  0  0
   11.1529   -4.3028   22.1277 C   0  0  0  0  0  0  0  0  0  0  0  0
   11.1290   -4.8502   19.8052 C   0  0  0  0  0  0  0  0  0  0  0  0
   12.4329   -4.2159   24.4224 C   0  0  0  0  0  0  0  0  0  0  0  0
    3.4740   -9.0387   16.5022 C   0  0  0  0  0  0  0  0  0  0  0  0
    6.8384   -7.9290   17.5282 N   0  0  0  0  0  0  0  0  0  0  0  0
    9.4126   -5.9853   18.4899 C   0  0  0  0  0  0  0  0  0  0  0  0
    4.2064  -10.3242   18.3302 C   0  0  0  0  0  0  0  0  0  0  0  0
    9.6599   -4.1551   16.4796 N   0  0  0  0  0  0  0  0  0  0  0  0
    7.0644   -6.4612   15.7375 N   0  0  0  0  0  0  0  0  0  0  0  0
    5.3549   -9.6322   18.3190 C   0  0  0  0  0  0  0  0  0  0  0  0
   10.3704   -4.9638   18.6510 C   0  0  0  0  0  0  0  0  0  0  0  0
    5.5935   -8.6419   17.4234 C   0  0  0  0  0  0  0  0  0  0  0  0
   13.0726   -4.6648   23.3394 O   0  0  0  0  0  0  0  0  0  0  0  0
    8.5955   -6.0705   17.3996 C   0  0  0  0  0  0  0  0  0  0  0  0
    4.6223   -8.3832   16.5030 C   0  0  0  0  0  0  0  0  0  0  0  0
   12.4690   -5.2624   19.9024 C   0  0  0  0  0  0  0  0  0  0  0  0
    3.2548   -9.9919   17.4189 C   0  0  0  0  0  0  0  0  0  0  0  0
   12.4767   -4.7393   22.1790 C   0  0  0  0  0  0  0  0  0  0  0  0
    7.8593   -5.3772   15.3569 N   0  0  0  0  0  0  0  0  0  0  0  0
    7.4412   -6.9038   16.9283 C   0  0  0  0  0  0  0  0  0  0  0  0
  1 21  4  0
  1 23  4  0
  2  5  1  0
  2 13  4  0
  2 16  4  0
  3  6  4  0
  3  7  4  0
  4 13  4  0
  4 19  4  0
  4 24  4  0
  6 23  4  0
  7 16  1  0
  7 21  4  0
  8 18  1  0
  9 20  4  0
  9 22  4  0
 10 17  1  0
 10 25  1  0
 11 16  4  0
 11 19  4  0
 12 15  4  0
 12 22  4  0
 14 24  4  0
 14 25  4  0
 15 17  4  0
 17 20  4  0
 18 23  1  0
 19 25  4  0
M  END
$$$$

 Created by Python create_sdf_string function

 25 28  0  0  0  0  0  0  0  0999 V2000
   13.1533   -5.2399   21.0682 C   0  0  0  0  0  0  0  0  0  0  0  0
   10.4729   -4.0295   17.6135 C   0  0  0  0  0  0  0  0  0  0  0  0
   10.4789   -4.3641   20.9564 C   0  0  0  0  0  0  0  0  0  0  0  0
    8.7421   -5.1412   16.3650 C   0  0  0  0  0  0  0  0  0  0  0  0
   11.4353   -2.9204   17.8044 C   0  0  0  0  0  0  0  0  0  0  0  0
   11.1529   -4.3028   22.1277 C   0  0  0  0  0  0  0  0  0  0  0  0
   11.1290   -4.8502   19.8052 C   0  0  0  0  0  0  0  0  0  0  0  0
   12.4329   -4.2159   24.4224 C   0  0  0  0  0  0  0  0  0  0  0  0
    3.4740   -9.0387   16.5022 C   0  0  0  0  0  0  0  0  0  0  0  0
    6.8384   -7.9290   17.5282 N   0  0  0  0  0  0  0  0  0  0  0  0
    9.4126   -5.9853   18.4899 C   0  0  0  0  0  0  0  0  0  0  0  0
    4.2064  -10.3242   18.3302 C   0  0  0  0  0  0  0  0  0  0  0  0
    9.6599   -4.1551   16.4796 N   0  0  0  0  0  0  0  0  0  0  0  0
    7.0644   -6.4612   15.7375 N   0  0  0  0  0  0  0  0  0  0  0  0
    5.3549   -9.6322   18.3190 C   0  0  0  0  0  0  0  0  0  0  0  0
   10.3704   -4.9638   18.6510 C   0  0  0  0  0  0  0  0  0  0  0  0
    5.5935   -8.6419   17.4234 C   0  0  0  0  0  0  0  0  0  0  0  0
   13.0726   -4.6648   23.3394 O   0  0  0  0  0  0  0  0  0  0  0  0
    8.5955   -6.0705   17.3996 C   0  0  0  0  0  0  0  0  0  0  0  0
    4.6223   -8.3832   16.5030 C   0  0  0  0  0  0  0  0  0  0  0  0
   12.4690   -5.2624   19.9024 C   0  0  0  0  0  0  0  0  0  0  0  0
    3.2548   -9.9919   17.4189 C   0  0  0  0  0  0  0  0  0  0  0  0
   12.4767   -4.7393   22.1790 C   0  0  0  0  0  0  0  0  0  0  0  0
    7.8593   -5.3772   15.3569 N   0  0  0  0  0  0  0  0  0  0  0  0
    7.4412   -6.9038   16.9283 C   0  0  0  0  0  0  0  0  0  0  0  0
  1 21  4  0
  1 23  4  0
  2  5  1  0
  2 13  4  0
  2 16  4  0
  3  6  4  0
  3  7  4  0
  4 13  4  0
  4 19  4  0
  4 24  4  0
  6 23  4  0
  7 16  1  0
  7 21  4  0
  8 18  1  0
  9 20  4  0
  9 22  4  0
 10 17  1  0
 10 25  1  0
 11 16  4  0
 11 19  4  0
 12 15  4  0
 12 22  4  0
 14 24  4  0
 14 25  4  0
 15 17  4  0
 17 20  4  0
 18 23  1  0
 19 25  4  0
M  END
$$$$

 Created by Python create_sdf_string function

 25 28  0  0  0  0  0  0  0  0999 V2000
   13.1533   -5.2399   21.0682 C   0  0  0  0  0  0  0  0  0  0  0  0
   10.4729   -4.0295   17.6135 C   0  0  0  0  0  0  0  0  0  0  0  0
   10.4789   -4.3641   20.9564 C   0  0  0  0  0  0  0  0  0  0  0  0
    8.7421   -5.1412   16.3650 C   0  0  0  0  0  0  0  0  0  0  0  0
   11.4353   -2.9204   17.8044 C   0  0  0  0  0  0  0  0  0  0  0  0
   11.1529   -4.3028   22.1277 C   0  0  0  0  0  0  0  0  0  0  0  0
   11.1290   -4.8502   19.8052 C   0  0  0  0  0  0  0  0  0  0  0  0
   12.4329   -4.2159   24.4224 C   0  0  0  0  0  0  0  0  0  0  0  0
    3.4740   -9.0387   16.5022 C   0  0  0  0  0  0  0  0  0  0  0  0
    6.8384   -7.9290   17.5282 N   0  0  0  0  0  0  0  0  0  0  0  0
    9.4126   -5.9853   18.4899 C   0  0  0  0  0  0  0  0  0  0  0  0
    4.2064  -10.3242   18.3302 C   0  0  0  0  0  0  0  0  0  0  0  0
    9.6599   -4.1551   16.4796 N   0  0  0  0  0  0  0  0  0  0  0  0
    7.0644   -6.4612   15.7375 N   0  0  0  0  0  0  0  0  0  0  0  0
    5.3549   -9.6322   18.3190 C   0  0  0  0  0  0  0  0  0  0  0  0
   10.3704   -4.9638   18.6510 C   0  0  0  0  0  0  0  0  0  0  0  0
    5.5935   -8.6419   17.4234 C   0  0  0  0  0  0  0  0  0  0  0  0
   13.0726   -4.6648   23.3394 O   0  0  0  0  0  0  0  0  0  0  0  0
    8.5955   -6.0705   17.3996 C   0  0  0  0  0  0  0  0  0  0  0  0
    4.6223   -8.3832   16.5030 C   0  0  0  0  0  0  0  0  0  0  0  0
   12.4690   -5.2624   19.9024 C   0  0  0  0  0  0  0  0  0  0  0  0
    3.2548   -9.9919   17.4189 C   0  0  0  0  0  0  0  0  0  0  0  0
   12.4767   -4.7393   22.1790 C   0  0  0  0  0  0  0  0  0  0  0  0
    7.8593   -5.3772   15.3569 N   0  0  0  0  0  0  0  0  0  0  0  0
    7.4412   -6.9038   16.9283 C   0  0  0  0  0  0  0  0  0  0  0  0
  1 21  4  0
  1 23  4  0
  2  5  1  0
  2 13  4  0
  2 16  4  0
  3  6  4  0
  3  7  4  0
  4 13  4  0
  4 19  4  0
  4 24  4  0
  6 23  4  0
  7 16  1  0
  7 21  4  0
  8 18  1  0
  9 20  4  0
  9 22  4  0
 10 17  1  0
 10 25  1  0
 11 16  4  0
 11 19  4  0
 12 15  4  0
 12 22  4  0
 14 24  4  0
 14 25  4  0
 15 17  4  0
 17 20  4  0
 18 23  1  0
 19 25  4  0
M  END
$$$$

 Created by Python create_sdf_string function

 25 28  0  0  0  0  0  0  0  0999 V2000
   13.1533   -5.2399   21.0682 C   0  0  0  0  0  0  0  0  0  0  0  0
   10.4729   -4.0295   17.6135 C   0  0  0  0  0  0  0  0  0  0  0  0
   10.4789   -4.3641   20.9564 C   0  0  0  0  0  0  0  0  0  0  0  0
    8.7421   -5.1412   16.3650 C   0  0  0  0  0  0  0  0  0  0  0  0
   11.4353   -2.9204   17.8044 C   0  0  0  0  0  0  0  0  0  0  0  0
   11.1529   -4.3028   22.1277 C   0  0  0  0  0  0  0  0  0  0  0  0
   11.1290   -4.8502   19.8052 C   0  0  0  0  0  0  0  0  0  0  0  0
   12.4329   -4.2159   24.4224 C   0  0  0  0  0  0  0  0  0  0  0  0
    3.4740   -9.0387   16.5022 C   0  0  0  0  0  0  0  0  0  0  0  0
    6.8384   -7.9290   17.5282 N   0  0  0  0  0  0  0  0  0  0  0  0
    9.4126   -5.9853   18.4899 C   0  0  0  0  0  0  0  0  0  0  0  0
    4.2064  -10.3242   18.3302 C   0  0  0  0  0  0  0  0  0  0  0  0
    9.6599   -4.1551   16.4796 N   0  0  0  0  0  0  0  0  0  0  0  0
    7.0644   -6.4612   15.7375 N   0  0  0  0  0  0  0  0  0  0  0  0
    5.3549   -9.6322   18.3190 C   0  0  0  0  0  0  0  0  0  0  0  0
   10.3704   -4.9638   18.6510 C   0  0  0  0  0  0  0  0  0  0  0  0
    5.5935   -8.6419   17.4234 C   0  0  0  0  0  0  0  0  0  0  0  0
   13.0726   -4.6648   23.3394 O   0  0  0  0  0  0  0  0  0  0  0  0
    8.5955   -6.0705   17.3996 C   0  0  0  0  0  0  0  0  0  0  0  0
    4.6223   -8.3832   16.5030 C   0  0  0  0  0  0  0  0  0  0  0  0
   12.4690   -5.2624   19.9024 C   0  0  0  0  0  0  0  0  0  0  0  0
    3.2548   -9.9919   17.4189 C   0  0  0  0  0  0  0  0  0  0  0  0
   12.4767   -4.7393   22.1790 C   0  0  0  0  0  0  0  0  0  0  0  0
    7.8593   -5.3772   15.3569 N   0  0  0  0  0  0  0  0  0  0  0  0
    7.4412   -6.9038   16.9283 C   0  0  0  0  0  0  0  0  0  0  0  0
  1 21  4  0
  1 23  4  0
  2  5  1  0
  2 13  4  0
  2 16  4  0
  3  6  4  0
  3  7  4  0
  4 13  4  0
  4 19  4  0
  4 24  4  0
  6 23  4  0
  7 16  1  0
  7 21  4  0
  8 18  1  0
  9 20  4  0
  9 22  4  0
 10 17  1  0
 10 25  1  0
 11 16  4  0
 11 19  4  0
 12 15  4  0
 12 22  4  0
 14 24  4  0
 14 25  4  0
 15 17  4  0
 17 20  4  0
 18 23  1  0
 19 25  4  0
M  END
$$$$

 Created by Python create_sdf_string function

 25 28  0  0  0  0  0  0  0  0999 V2000
   13.1533   -5.2399   21.0682 C   0  0  0  0  0  0  0  0  0  0  0  0
   10.4729   -4.0295   17.6135 C   0  0  0  0  0  0  0  0  0  0  0  0
   10.4789   -4.3641   20.9564 C   0  0  0  0  0  0  0  0  0  0  0  0
    8.7421   -5.1412   16.3650 C   0  0  0  0  0  0  0  0  0  0  0  0
   11.4353   -2.9204   17.8044 C   0  0  0  0  0  0  0  0  0  0  0  0
   11.1529   -4.3028   22.1277 C   0  0  0  0  0  0  0  0  0  0  0  0
   11.1290   -4.8502   19.8052 C   0  0  0  0  0  0  0  0  0  0  0  0
   12.4329   -4.2159   24.4224 C   0  0  0  0  0  0  0  0  0  0  0  0
    3.4740   -9.0387   16.5022 C   0  0  0  0  0  0  0  0  0  0  0  0
    6.8384   -7.9290   17.5282 N   0  0  0  0  0  0  0  0  0  0  0  0
    9.4126   -5.9853   18.4899 C   0  0  0  0  0  0  0  0  0  0  0  0
    4.2064  -10.3242   18.3302 C   0  0  0  0  0  0  0  0  0  0  0  0
    9.6599   -4.1551   16.4796 N   0  0  0  0  0  0  0  0  0  0  0  0
    7.0644   -6.4612   15.7375 N   0  0  0  0  0  0  0  0  0  0  0  0
    5.3549   -9.6322   18.3190 C   0  0  0  0  0  0  0  0  0  0  0  0
   10.3704   -4.9638   18.6510 C   0  0  0  0  0  0  0  0  0  0  0  0
    5.5935   -8.6419   17.4234 C   0  0  0  0  0  0  0  0  0  0  0  0
   13.0726   -4.6648   23.3394 O   0  0  0  0  0  0  0  0  0  0  0  0
    8.5955   -6.0705   17.3996 C   0  0  0  0  0  0  0  0  0  0  0  0
    4.6223   -8.3832   16.5030 C   0  0  0  0  0  0  0  0  0  0  0  0
   12.4690   -5.2624   19.9024 C   0  0  0  0  0  0  0  0  0  0  0  0
    3.2548   -9.9919   17.4189 C   0  0  0  0  0  0  0  0  0  0  0  0
   12.4767   -4.7393   22.1790 C   0  0  0  0  0  0  0  0  0  0  0  0
    7.8593   -5.3772   15.3569 N   0  0  0  0  0  0  0  0  0  0  0  0
    7.4412   -6.9038   16.9283 C   0  0  0  0  0  0  0  0  0  0  0  0
  1 21  4  0
  1 23  4  0
  2  5  1  0
  2 13  4  0
  2 16  4  0
  3  6  4  0
  3  7  4  0
  4 13  4  0
  4 19  4  0
  4 24  4  0
  6 23  4  0
  7 16  1  0
  7 21  4  0
  8 18  1  0
  9 20  4  0
  9 22  4  0
 10 17  1  0
 10 25  1  0
 11 16  4  0
 11 19  4  0
 12 15  4  0
 12 22  4  0
 14 24  4  0
 14 25  4  0
 15 17  4  0
 17 20  4  0
 18 23  1  0
 19 25  4  0
M  END
$$$$

 Created by Python create_sdf_string function

 25 28  0  0  0  0  0  0  0  0999 V2000
   13.1533   -5.2399   21.0682 C   0  0  0  0  0  0  0  0  0  0  0  0
   10.4729   -4.0295   17.6135 C   0  0  0  0  0  0  0  0  0  0  0  0
   10.4789   -4.3641   20.9564 C   0  0  0  0  0  0  0  0  0  0  0  0
    8.7421   -5.1412   16.3650 C   0  0  0  0  0  0  0  0  0  0  0  0
   11.4353   -2.9204   17.8044 C   0  0  0  0  0  0  0  0  0  0  0  0
   11.1529   -4.3028   22.1277 C   0  0  0  0  0  0  0  0  0  0  0  0
   11.1290   -4.8502   19.8052 C   0  0  0  0  0  0  0  0  0  0  0  0
   12.4329   -4.2159   24.4224 C   0  0  0  0  0  0  0  0  0  0  0  0
    3.4740   -9.0387   16.5022 C   0  0  0  0  0  0  0  0  0  0  0  0
    6.8384   -7.9290   17.5282 N   0  0  0  0  0  0  0  0  0  0  0  0
    9.4126   -5.9853   18.4899 C   0  0  0  0  0  0  0  0  0  0  0  0
    4.2064  -10.3242   18.3302 C   0  0  0  0  0  0  0  0  0  0  0  0
    9.6599   -4.1551   16.4796 N   0  0  0  0  0  0  0  0  0  0  0  0
    7.0644   -6.4612   15.7375 N   0  0  0  0  0  0  0  0  0  0  0  0
    5.3549   -9.6322   18.3190 C   0  0  0  0  0  0  0  0  0  0  0  0
   10.3704   -4.9638   18.6510 C   0  0  0  0  0  0  0  0  0  0  0  0
    5.5935   -8.6419   17.4234 C   0  0  0  0  0  0  0  0  0  0  0  0
   13.0726   -4.6648   23.3394 O   0  0  0  0  0  0  0  0  0  0  0  0
    8.5955   -6.0705   17.3996 C   0  0  0  0  0  0  0  0  0  0  0  0
    4.6223   -8.3832   16.5030 C   0  0  0  0  0  0  0  0  0  0  0  0
   12.4690   -5.2624   19.9024 C   0  0  0  0  0  0  0  0  0  0  0  0
    3.2548   -9.9919   17.4189 C   0  0  0  0  0  0  0  0  0  0  0  0
   12.4767   -4.7393   22.1790 C   0  0  0  0  0  0  0  0  0  0  0  0
    7.8593   -5.3772   15.3569 N   0  0  0  0  0  0  0  0  0  0  0  0
    7.4412   -6.9038   16.9283 C   0  0  0  0  0  0  0  0  0  0  0  0
  1 21  4  0
  1 23  4  0
  2  5  1  0
  2 13  4  0
  2 16  4  0
  3  6  4  0
  3  7  4  0
  4 13  4  0
  4 19  4  0
  4 24  4  0
  6 23  4  0
  7 16  1  0
  7 21  4  0
  8 18  1  0
  9 20  4  0
  9 22  4  0
 10 17  1  0
 10 25  1  0
 11 16  4  0
 11 19  4  0
 12 15  4  0
 12 22  4  0
 14 24  4  0
 14 25  4  0
 15 17  4  0
 17 20  4  0
 18 23  1  0
 19 25  4  0
M  END
$$$$

 Created by Python create_sdf_string function

 25 28  0  0  0  0  0  0  0  0999 V2000
   13.1533   -5.2399   21.0682 C   0  0  0  0  0  0  0  0  0  0  0  0
   10.4729   -4.0295   17.6135 C   0  0  0  0  0  0  0  0  0  0  0  0
   10.4789   -4.3641   20.9564 C   0  0  0  0  0  0  0  0  0  0  0  0
    8.7421   -5.1412   16.3650 C   0  0  0  0  0  0  0  0  0  0  0  0
   11.4353   -2.9204   17.8044 C   0  0  0  0  0  0  0  0  0  0  0  0
   11.1529   -4.3028   22.1277 C   0  0  0  0  0  0  0  0  0  0  0  0
   11.1290   -4.8502   19.8052 C   0  0  0  0  0  0  0  0  0  0  0  0
   12.4329   -4.2159   24.4224 C   0  0  0  0  0  0  0  0  0  0  0  0
    3.4740   -9.0387   16.5022 C   0  0  0  0  0  0  0  0  0  0  0  0
    6.8384   -7.9290   17.5282 N   0  0  0  0  0  0  0  0  0  0  0  0
    9.4126   -5.9853   18.4899 C   0  0  0  0  0  0  0  0  0  0  0  0
    4.2064  -10.3242   18.3302 C   0  0  0  0  0  0  0  0  0  0  0  0
    9.6599   -4.1551   16.4796 N   0  0  0  0  0  0  0  0  0  0  0  0
    7.0644   -6.4612   15.7375 N   0  0  0  0  0  0  0  0  0  0  0  0
    5.3549   -9.6322   18.3190 C   0  0  0  0  0  0  0  0  0  0  0  0
   10.3704   -4.9638   18.6510 C   0  0  0  0  0  0  0  0  0  0  0  0
    5.5935   -8.6419   17.4234 C   0  0  0  0  0  0  0  0  0  0  0  0
   13.0726   -4.6648   23.3394 O   0  0  0  0  0  0  0  0  0  0  0  0
    8.5955   -6.0705   17.3996 C   0  0  0  0  0  0  0  0  0  0  0  0
    4.6223   -8.3832   16.5030 C   0  0  0  0  0  0  0  0  0  0  0  0
   12.4690   -5.2624   19.9024 C   0  0  0  0  0  0  0  0  0  0  0  0
    3.2548   -9.9919   17.4189 C   0  0  0  0  0  0  0  0  0  0  0  0
   12.4767   -4.7393   22.1790 C   0  0  0  0  0  0  0  0  0  0  0  0
    7.8593   -5.3772   15.3569 N   0  0  0  0  0  0  0  0  0  0  0  0
    7.4412   -6.9038   16.9283 C   0  0  0  0  0  0  0  0  0  0  0  0
  1 21  4  0
  1 23  4  0
  2  5  1  0
  2 13  4  0
  2 16  4  0
  3  6  4  0
  3  7  4  0
  4 13  4  0
  4 19  4  0
  4 24  4  0
  6 23  4  0
  7 16  1  0
  7 21  4  0
  8 18  1  0
  9 20  4  0
  9 22  4  0
 10 17  1  0
 10 25  1  0
 11 16  4  0
 11 19  4  0
 12 15  4  0
 12 22  4  0
 14 24  4  0
 14 25  4  0
 15 17  4  0
 17 20  4  0
 18 23  1  0
 19 25  4  0
M  END
$$$$

 Created by Python create_sdf_string function

 25 28  0  0  0  0  0  0  0  0999 V2000
   13.1533   -5.2399   21.0682 C   0  0  0  0  0  0  0  0  0  0  0  0
   10.4729   -4.0295   17.6135 C   0  0  0  0  0  0  0  0  0  0  0  0
   10.4789   -4.3641   20.9564 C   0  0  0  0  0  0  0  0  0  0  0  0
    8.7421   -5.1412   16.3650 C   0  0  0  0  0  0  0  0  0  0  0  0
   11.4353   -2.9204   17.8044 C   0  0  0  0  0  0  0  0  0  0  0  0
   11.1529   -4.3028   22.1277 C   0  0  0  0  0  0  0  0  0  0  0  0
   11.1290   -4.8502   19.8052 C   0  0  0  0  0  0  0  0  0  0  0  0
   12.4329   -4.2159   24.4224 C   0  0  0  0  0  0  0  0  0  0  0  0
    3.4740   -9.0387   16.5022 C   0  0  0  0  0  0  0  0  0  0  0  0
    6.8384   -7.9290   17.5282 N   0  0  0  0  0  0  0  0  0  0  0  0
    9.4126   -5.9853   18.4899 C   0  0  0  0  0  0  0  0  0  0  0  0
    4.2064  -10.3242   18.3302 C   0  0  0  0  0  0  0  0  0  0  0  0
    9.6599   -4.1551   16.4796 N   0  0  0  0  0  0  0  0  0  0  0  0
    7.0644   -6.4612   15.7375 N   0  0  0  0  0  0  0  0  0  0  0  0
    5.3549   -9.6322   18.3190 C   0  0  0  0  0  0  0  0  0  0  0  0
   10.3704   -4.9638   18.6510 C   0  0  0  0  0  0  0  0  0  0  0  0
    5.5935   -8.6419   17.4234 C   0  0  0  0  0  0  0  0  0  0  0  0
   13.0726   -4.6648   23.3394 O   0  0  0  0  0  0  0  0  0  0  0  0
    8.5955   -6.0705   17.3996 C   0  0  0  0  0  0  0  0  0  0  0  0
    4.6223   -8.3832   16.5030 C   0  0  0  0  0  0  0  0  0  0  0  0
   12.4690   -5.2624   19.9024 C   0  0  0  0  0  0  0  0  0  0  0  0
    3.2548   -9.9919   17.4189 C   0  0  0  0  0  0  0  0  0  0  0  0
   12.4767   -4.7393   22.1790 C   0  0  0  0  0  0  0  0  0  0  0  0
    7.8593   -5.3772   15.3569 N   0  0  0  0  0  0  0  0  0  0  0  0
    7.4412   -6.9038   16.9283 C   0  0  0  0  0  0  0  0  0  0  0  0
  1 21  4  0
  1 23  4  0
  2  5  1  0
  2 13  4  0
  2 16  4  0
  3  6  4  0
  3  7  4  0
  4 13  4  0
  4 19  4  0
  4 24  4  0
  6 23  4  0
  7 16  1  0
  7 21  4  0
  8 18  1  0
  9 20  4  0
  9 22  4  0
 10 17  1  0
 10 25  1  0
 11 16  4  0
 11 19  4  0
 12 15  4  0
 12 22  4  0
 14 24  4  0
 14 25  4  0
 15 17  4  0
 17 20  4  0
 18 23  1  0
 19 25  4  0
M  END
$$$$

 Created by Python create_sdf_string function

 25 28  0  0  0  0  0  0  0  0999 V2000
   13.1533   -5.2399   21.0682 C   0  0  0  0  0  0  0  0  0  0  0  0
   10.4729   -4.0295   17.6135 C   0  0  0  0  0  0  0  0  0  0  0  0
   10.4789   -4.3641   20.9564 C   0  0  0  0  0  0  0  0  0  0  0  0
    8.7421   -5.1412   16.3650 C   0  0  0  0  0  0  0  0  0  0  0  0
   11.4353   -2.9204   17.8044 C   0  0  0  0  0  0  0  0  0  0  0  0
   11.1529   -4.3028   22.1277 C   0  0  0  0  0  0  0  0  0  0  0  0
   11.1290   -4.8502   19.8052 C   0  0  0  0  0  0  0  0  0  0  0  0
   12.4329   -4.2159   24.4224 C   0  0  0  0  0  0  0  0  0  0  0  0
    3.4740   -9.0387   16.5022 C   0  0  0  0  0  0  0  0  0  0  0  0
    6.8384   -7.9290   17.5282 N   0  0  0  0  0  0  0  0  0  0  0  0
    9.4126   -5.9853   18.4899 C   0  0  0  0  0  0  0  0  0  0  0  0
    4.2064  -10.3242   18.3302 C   0  0  0  0  0  0  0  0  0  0  0  0
    9.6599   -4.1551   16.4796 N   0  0  0  0  0  0  0  0  0  0  0  0
    7.0644   -6.4612   15.7375 N   0  0  0  0  0  0  0  0  0  0  0  0
    5.3549   -9.6322   18.3190 C   0  0  0  0  0  0  0  0  0  0  0  0
   10.3704   -4.9638   18.6510 C   0  0  0  0  0  0  0  0  0  0  0  0
    5.5935   -8.6419   17.4234 C   0  0  0  0  0  0  0  0  0  0  0  0
   13.0726   -4.6648   23.3394 O   0  0  0  0  0  0  0  0  0  0  0  0
    8.5955   -6.0705   17.3996 C   0  0  0  0  0  0  0  0  0  0  0  0
    4.6223   -8.3832   16.5030 C   0  0  0  0  0  0  0  0  0  0  0  0
   12.4690   -5.2624   19.9024 C   0  0  0  0  0  0  0  0  0  0  0  0
    3.2548   -9.9919   17.4189 C   0  0  0  0  0  0  0  0  0  0  0  0
   12.4767   -4.7393   22.1790 C   0  0  0  0  0  0  0  0  0  0  0  0
    7.8593   -5.3772   15.3569 N   0  0  0  0  0  0  0  0  0  0  0  0
    7.4412   -6.9038   16.9283 C   0  0  0  0  0  0  0  0  0  0  0  0
  1 21  4  0
  1 23  4  0
  2  5  1  0
  2 13  4  0
  2 16  4  0
  3  6  4  0
  3  7  4  0
  4 13  4  0
  4 19  4  0
  4 24  4  0
  6 23  4  0
  7 16  1  0
  7 21  4  0
  8 18  1  0
  9 20  4  0
  9 22  4  0
 10 17  1  0
 10 25  1  0
 11 16  4  0
 11 19  4  0
 12 15  4  0
 12 22  4  0
 14 24  4  0
 14 25  4  0
 15 17  4  0
 17 20  4  0
 18 23  1  0
 19 25  4  0
M  END
$$$$

 Created by Python create_sdf_string function

 25 28  0  0  0  0  0  0  0  0999 V2000
   13.1533   -5.2399   21.0682 C   0  0  0  0  0  0  0  0  0  0  0  0
   10.4729   -4.0295   17.6135 C   0  0  0  0  0  0  0  0  0  0  0  0
   10.4789   -4.3641   20.9564 C   0  0  0  0  0  0  0  0  0  0  0  0
    8.7421   -5.1412   16.3650 C   0  0  0  0  0  0  0  0  0  0  0  0
   11.4353   -2.9204   17.8044 C   0  0  0  0  0  0  0  0  0  0  0  0
   11.1529   -4.3028   22.1277 C   0  0  0  0  0  0  0  0  0  0  0  0
   11.1290   -4.8502   19.8052 C   0  0  0  0  0  0  0  0  0  0  0  0
   12.4329   -4.2159   24.4224 C   0  0  0  0  0  0  0  0  0  0  0  0
    3.4740   -9.0387   16.5022 C   0  0  0  0  0  0  0  0  0  0  0  0
    6.8384   -7.9290   17.5282 N   0  0  0  0  0  0  0  0  0  0  0  0
    9.4126   -5.9853   18.4899 C   0  0  0  0  0  0  0  0  0  0  0  0
    4.2064  -10.3242   18.3302 C   0  0  0  0  0  0  0  0  0  0  0  0
    9.6599   -4.1551   16.4796 N   0  0  0  0  0  0  0  0  0  0  0  0
    7.0644   -6.4612   15.7375 N   0  0  0  0  0  0  0  0  0  0  0  0
    5.3549   -9.6322   18.3190 C   0  0  0  0  0  0  0  0  0  0  0  0
   10.3704   -4.9638   18.6510 C   0  0  0  0  0  0  0  0  0  0  0  0
    5.5935   -8.6419   17.4234 C   0  0  0  0  0  0  0  0  0  0  0  0
   13.0726   -4.6648   23.3394 O   0  0  0  0  0  0  0  0  0  0  0  0
    8.5955   -6.0705   17.3996 C   0  0  0  0  0  0  0  0  0  0  0  0
    4.6223   -8.3832   16.5030 C   0  0  0  0  0  0  0  0  0  0  0  0
   12.4690   -5.2624   19.9024 C   0  0  0  0  0  0  0  0  0  0  0  0
    3.2548   -9.9919   17.4189 C   0  0  0  0  0  0  0  0  0  0  0  0
   12.4767   -4.7393   22.1790 C   0  0  0  0  0  0  0  0  0  0  0  0
    7.8593   -5.3772   15.3569 N   0  0  0  0  0  0  0  0  0  0  0  0
    7.4412   -6.9038   16.9283 C   0  0  0  0  0  0  0  0  0  0  0  0
  1 21  4  0
  1 23  4  0
  2  5  1  0
  2 13  4  0
  2 16  4  0
  3  6  4  0
  3  7  4  0
  4 13  4  0
  4 19  4  0
  4 24  4  0
  6 23  4  0
  7 16  1  0
  7 21  4  0
  8 18  1  0
  9 20  4  0
  9 22  4  0
 10 17  1  0
 10 25  1  0
 11 16  4  0
 11 19  4  0
 12 15  4  0
 12 22  4  0
 14 24  4  0
 14 25  4  0
 15 17  4  0
 17 20  4  0
 18 23  1  0
 19 25  4  0
M  END
$$$$

 Created by Python create_sdf_string function

 25 28  0  0  0  0  0  0  0  0999 V2000
   13.1533   -5.2399   21.0682 C   0  0  0  0  0  0  0  0  0  0  0  0
   10.4729   -4.0295   17.6135 C   0  0  0  0  0  0  0  0  0  0  0  0
   10.4789   -4.3641   20.9564 C   0  0  0  0  0  0  0  0  0  0  0  0
    8.7421   -5.1412   16.3650 C   0  0  0  0  0  0  0  0  0  0  0  0
   11.4353   -2.9204   17.8044 C   0  0  0  0  0  0  0  0  0  0  0  0
   11.1529   -4.3028   22.1277 C   0  0  0  0  0  0  0  0  0  0  0  0
   11.1290   -4.8502   19.8052 C   0  0  0  0  0  0  0  0  0  0  0  0
   12.4329   -4.2159   24.4224 C   0  0  0  0  0  0  0  0  0  0  0  0
    3.4740   -9.0387   16.5022 C   0  0  0  0  0  0  0  0  0  0  0  0
    6.8384   -7.9290   17.5282 N   0  0  0  0  0  0  0  0  0  0  0  0
    9.4126   -5.9853   18.4899 C   0  0  0  0  0  0  0  0  0  0  0  0
    4.2064  -10.3242   18.3302 C   0  0  0  0  0  0  0  0  0  0  0  0
    9.6599   -4.1551   16.4796 N   0  0  0  0  0  0  0  0  0  0  0  0
    7.0644   -6.4612   15.7375 N   0  0  0  0  0  0  0  0  0  0  0  0
    5.3549   -9.6322   18.3190 C   0  0  0  0  0  0  0  0  0  0  0  0
   10.3704   -4.9638   18.6510 C   0  0  0  0  0  0  0  0  0  0  0  0
    5.5935   -8.6419   17.4234 C   0  0  0  0  0  0  0  0  0  0  0  0
   13.0726   -4.6648   23.3394 O   0  0  0  0  0  0  0  0  0  0  0  0
    8.5955   -6.0705   17.3996 C   0  0  0  0  0  0  0  0  0  0  0  0
    4.6223   -8.3832   16.5030 C   0  0  0  0  0  0  0  0  0  0  0  0
   12.4690   -5.2624   19.9024 C   0  0  0  0  0  0  0  0  0  0  0  0
    3.2548   -9.9919   17.4189 C   0  0  0  0  0  0  0  0  0  0  0  0
   12.4767   -4.7393   22.1790 C   0  0  0  0  0  0  0  0  0  0  0  0
    7.8593   -5.3772   15.3569 N   0  0  0  0  0  0  0  0  0  0  0  0
    7.4412   -6.9038   16.9283 C   0  0  0  0  0  0  0  0  0  0  0  0
  1 21  4  0
  1 23  4  0
  2  5  1  0
  2 13  4  0
  2 16  4  0
  3  6  4  0
  3  7  4  0
  4 13  4  0
  4 19  4  0
  4 24  4  0
  6 23  4  0
  7 16  1  0
  7 21  4  0
  8 18  1  0
  9 20  4  0
  9 22  4  0
 10 17  1  0
 10 25  1  0
 11 16  4  0
 11 19  4  0
 12 15  4  0
 12 22  4  0
 14 24  4  0
 14 25  4  0
 15 17  4  0
 17 20  4  0
 18 23  1  0
 19 25  4  0
M  END
$$$$

 Created by Python create_sdf_string function

 25 28  0  0  0  0  0  0  0  0999 V2000
   13.1533   -5.2399   21.0682 C   0  0  0  0  0  0  0  0  0  0  0  0
   10.4729   -4.0295   17.6135 C   0  0  0  0  0  0  0  0  0  0  0  0
   10.4789   -4.3641   20.9564 C   0  0  0  0  0  0  0  0  0  0  0  0
    8.7421   -5.1412   16.3650 C   0  0  0  0  0  0  0  0  0  0  0  0
   11.4353   -2.9204   17.8044 C   0  0  0  0  0  0  0  0  0  0  0  0
   11.1529   -4.3028   22.1277 C   0  0  0  0  0  0  0  0  0  0  0  0
   11.1290   -4.8502   19.8052 C   0  0  0  0  0  0  0  0  0  0  0  0
   12.4329   -4.2159   24.4224 C   0  0  0  0  0  0  0  0  0  0  0  0
    3.4740   -9.0387   16.5022 C   0  0  0  0  0  0  0  0  0  0  0  0
    6.8384   -7.9290   17.5282 N   0  0  0  0  0  0  0  0  0  0  0  0
    9.4126   -5.9853   18.4899 C   0  0  0  0  0  0  0  0  0  0  0  0
    4.2064  -10.3242   18.3302 C   0  0  0  0  0  0  0  0  0  0  0  0
    9.6599   -4.1551   16.4796 N   0  0  0  0  0  0  0  0  0  0  0  0
    7.0644   -6.4612   15.7375 N   0  0  0  0  0  0  0  0  0  0  0  0
    5.3549   -9.6322   18.3190 C   0  0  0  0  0  0  0  0  0  0  0  0
   10.3704   -4.9638   18.6510 C   0  0  0  0  0  0  0  0  0  0  0  0
    5.5935   -8.6419   17.4234 C   0  0  0  0  0  0  0  0  0  0  0  0
   13.0726   -4.6648   23.3394 O   0  0  0  0  0  0  0  0  0  0  0  0
    8.5955   -6.0705   17.3996 C   0  0  0  0  0  0  0  0  0  0  0  0
    4.6223   -8.3832   16.5030 C   0  0  0  0  0  0  0  0  0  0  0  0
   12.4690   -5.2624   19.9024 C   0  0  0  0  0  0  0  0  0  0  0  0
    3.2548   -9.9919   17.4189 C   0  0  0  0  0  0  0  0  0  0  0  0
   12.4767   -4.7393   22.1790 C   0  0  0  0  0  0  0  0  0  0  0  0
    7.8593   -5.3772   15.3569 N   0  0  0  0  0  0  0  0  0  0  0  0
    7.4412   -6.9038   16.9283 C   0  0  0  0  0  0  0  0  0  0  0  0
  1 21  4  0
  1 23  4  0
  2  5  1  0
  2 13  4  0
  2 16  4  0
  3  6  4  0
  3  7  4  0
  4 13  4  0
  4 19  4  0
  4 24  4  0
  6 23  4  0
  7 16  1  0
  7 21  4  0
  8 18  1  0
  9 20  4  0
  9 22  4  0
 10 17  1  0
 10 25  1  0
 11 16  4  0
 11 19  4  0
 12 15  4  0
 12 22  4  0
 14 24  4  0
 14 25  4  0
 15 17  4  0
 17 20  4  0
 18 23  1  0
 19 25  4  0
M  END
$$$$

 Created by Python create_sdf_string function

 25 28  0  0  0  0  0  0  0  0999 V2000
   13.1533   -5.2399   21.0682 C   0  0  0  0  0  0  0  0  0  0  0  0
   10.4729   -4.0295   17.6135 C   0  0  0  0  0  0  0  0  0  0  0  0
   10.4789   -4.3641   20.9564 C   0  0  0  0  0  0  0  0  0  0  0  0
    8.7421   -5.1412   16.3650 C   0  0  0  0  0  0  0  0  0  0  0  0
   11.4353   -2.9204   17.8044 C   0  0  0  0  0  0  0  0  0  0  0  0
   11.1529   -4.3028   22.1277 C   0  0  0  0  0  0  0  0  0  0  0  0
   11.1290   -4.8502   19.8052 C   0  0  0  0  0  0  0  0  0  0  0  0
   12.4329   -4.2159   24.4224 C   0  0  0  0  0  0  0  0  0  0  0  0
    3.4740   -9.0387   16.5022 C   0  0  0  0  0  0  0  0  0  0  0  0
    6.8384   -7.9290   17.5282 N   0  0  0  0  0  0  0  0  0  0  0  0
    9.4126   -5.9853   18.4899 C   0  0  0  0  0  0  0  0  0  0  0  0
    4.2064  -10.3242   18.3302 C   0  0  0  0  0  0  0  0  0  0  0  0
    9.6599   -4.1551   16.4796 N   0  0  0  0  0  0  0  0  0  0  0  0
    7.0644   -6.4612   15.7375 N   0  0  0  0  0  0  0  0  0  0  0  0
    5.3549   -9.6322   18.3190 C   0  0  0  0  0  0  0  0  0  0  0  0
   10.3704   -4.9638   18.6510 C   0  0  0  0  0  0  0  0  0  0  0  0
    5.5935   -8.6419   17.4234 C   0  0  0  0  0  0  0  0  0  0  0  0
   13.0726   -4.6648   23.3394 O   0  0  0  0  0  0  0  0  0  0  0  0
    8.5955   -6.0705   17.3996 C   0  0  0  0  0  0  0  0  0  0  0  0
    4.6223   -8.3832   16.5030 C   0  0  0  0  0  0  0  0  0  0  0  0
   12.4690   -5.2624   19.9024 C   0  0  0  0  0  0  0  0  0  0  0  0
    3.2548   -9.9919   17.4189 C   0  0  0  0  0  0  0  0  0  0  0  0
   12.4767   -4.7393   22.1790 C   0  0  0  0  0  0  0  0  0  0  0  0
    7.8593   -5.3772   15.3569 N   0  0  0  0  0  0  0  0  0  0  0  0
    7.4412   -6.9038   16.9283 C   0  0  0  0  0  0  0  0  0  0  0  0
  1 21  4  0
  1 23  4  0
  2  5  1  0
  2 13  4  0
  2 16  4  0
  3  6  4  0
  3  7  4  0
  4 13  4  0
  4 19  4  0
  4 24  4  0
  6 23  4  0
  7 16  1  0
  7 21  4  0
  8 18  1  0
  9 20  4  0
  9 22  4  0
 10 17  1  0
 10 25  1  0
 11 16  4  0
 11 19  4  0
 12 15  4  0
 12 22  4  0
 14 24  4  0
 14 25  4  0
 15 17  4  0
 17 20  4  0
 18 23  1  0
 19 25  4  0
M  END
$$$$

 Created by Python create_sdf_string function

 25 28  0  0  0  0  0  0  0  0999 V2000
   13.1533   -5.2399   21.0682 C   0  0  0  0  0  0  0  0  0  0  0  0
   10.4729   -4.0295   17.6135 C   0  0  0  0  0  0  0  0  0  0  0  0
   10.4789   -4.3641   20.9564 C   0  0  0  0  0  0  0  0  0  0  0  0
    8.7421   -5.1412   16.3650 C   0  0  0  0  0  0  0  0  0  0  0  0
   11.4353   -2.9204   17.8044 C   0  0  0  0  0  0  0  0  0  0  0  0
   11.1529   -4.3028   22.1277 C   0  0  0  0  0  0  0  0  0  0  0  0
   11.1290   -4.8502   19.8052 C   0  0  0  0  0  0  0  0  0  0  0  0
   12.4329   -4.2159   24.4224 C   0  0  0  0  0  0  0  0  0  0  0  0
    3.4740   -9.0387   16.5022 C   0  0  0  0  0  0  0  0  0  0  0  0
    6.8384   -7.9290   17.5282 N   0  0  0  0  0  0  0  0  0  0  0  0
    9.4126   -5.9853   18.4899 C   0  0  0  0  0  0  0  0  0  0  0  0
    4.2064  -10.3242   18.3302 C   0  0  0  0  0  0  0  0  0  0  0  0
    9.6599   -4.1551   16.4796 N   0  0  0  0  0  0  0  0  0  0  0  0
    7.0644   -6.4612   15.7375 N   0  0  0  0  0  0  0  0  0  0  0  0
    5.3549   -9.6322   18.3190 C   0  0  0  0  0  0  0  0  0  0  0  0
   10.3704   -4.9638   18.6510 C   0  0  0  0  0  0  0  0  0  0  0  0
    5.5935   -8.6419   17.4234 C   0  0  0  0  0  0  0  0  0  0  0  0
   13.0726   -4.6648   23.3394 O   0  0  0  0  0  0  0  0  0  0  0  0
    8.5955   -6.0705   17.3996 C   0  0  0  0  0  0  0  0  0  0  0  0
    4.6223   -8.3832   16.5030 C   0  0  0  0  0  0  0  0  0  0  0  0
   12.4690   -5.2624   19.9024 C   0  0  0  0  0  0  0  0  0  0  0  0
    3.2548   -9.9919   17.4189 C   0  0  0  0  0  0  0  0  0  0  0  0
   12.4767   -4.7393   22.1790 C   0  0  0  0  0  0  0  0  0  0  0  0
    7.8593   -5.3772   15.3569 N   0  0  0  0  0  0  0  0  0  0  0  0
    7.4412   -6.9038   16.9283 C   0  0  0  0  0  0  0  0  0  0  0  0
  1 21  4  0
  1 23  4  0
  2  5  1  0
  2 13  4  0
  2 16  4  0
  3  6  4  0
  3  7  4  0
  4 13  4  0
  4 19  4  0
  4 24  4  0
  6 23  4  0
  7 16  1  0
  7 21  4  0
  8 18  1  0
  9 20  4  0
  9 22  4  0
 10 17  1  0
 10 25  1  0
 11 16  4  0
 11 19  4  0
 12 15  4  0
 12 22  4  0
 14 24  4  0
 14 25  4  0
 15 17  4  0
 17 20  4  0
 18 23  1  0
 19 25  4  0
M  END
$$$$

 Created by Python create_sdf_string function

 25 28  0  0  0  0  0  0  0  0999 V2000
   13.1533   -5.2399   21.0682 C   0  0  0  0  0  0  0  0  0  0  0  0
   10.4729   -4.0295   17.6135 C   0  0  0  0  0  0  0  0  0  0  0  0
   10.4789   -4.3641   20.9564 C   0  0  0  0  0  0  0  0  0  0  0  0
    8.7421   -5.1412   16.3650 C   0  0  0  0  0  0  0  0  0  0  0  0
   11.4353   -2.9204   17.8044 C   0  0  0  0  0  0  0  0  0  0  0  0
   11.1529   -4.3028   22.1277 C   0  0  0  0  0  0  0  0  0  0  0  0
   11.1290   -4.8502   19.8052 C   0  0  0  0  0  0  0  0  0  0  0  0
   12.4329   -4.2159   24.4224 C   0  0  0  0  0  0  0  0  0  0  0  0
    3.4740   -9.0387   16.5022 C   0  0  0  0  0  0  0  0  0  0  0  0
    6.8384   -7.9290   17.5282 N   0  0  0  0  0  0  0  0  0  0  0  0
    9.4126   -5.9853   18.4899 C   0  0  0  0  0  0  0  0  0  0  0  0
    4.2064  -10.3242   18.3302 C   0  0  0  0  0  0  0  0  0  0  0  0
    9.6599   -4.1551   16.4796 N   0  0  0  0  0  0  0  0  0  0  0  0
    7.0644   -6.4612   15.7375 N   0  0  0  0  0  0  0  0  0  0  0  0
    5.3549   -9.6322   18.3190 C   0  0  0  0  0  0  0  0  0  0  0  0
   10.3704   -4.9638   18.6510 C   0  0  0  0  0  0  0  0  0  0  0  0
    5.5935   -8.6419   17.4234 C   0  0  0  0  0  0  0  0  0  0  0  0
   13.0726   -4.6648   23.3394 O   0  0  0  0  0  0  0  0  0  0  0  0
    8.5955   -6.0705   17.3996 C   0  0  0  0  0  0  0  0  0  0  0  0
    4.6223   -8.3832   16.5030 C   0  0  0  0  0  0  0  0  0  0  0  0
   12.4690   -5.2624   19.9024 C   0  0  0  0  0  0  0  0  0  0  0  0
    3.2548   -9.9919   17.4189 C   0  0  0  0  0  0  0  0  0  0  0  0
   12.4767   -4.7393   22.1790 C   0  0  0  0  0  0  0  0  0  0  0  0
    7.8593   -5.3772   15.3569 N   0  0  0  0  0  0  0  0  0  0  0  0
    7.4412   -6.9038   16.9283 C   0  0  0  0  0  0  0  0  0  0  0  0
  1 21  4  0
  1 23  4  0
  2  5  1  0
  2 13  4  0
  2 16  4  0
  3  6  4  0
  3  7  4  0
  4 13  4  0
  4 19  4  0
  4 24  4  0
  6 23  4  0
  7 16  1  0
  7 21  4  0
  8 18  1  0
  9 20  4  0
  9 22  4  0
 10 17  1  0
 10 25  1  0
 11 16  4  0
 11 19  4  0
 12 15  4  0
 12 22  4  0
 14 24  4  0
 14 25  4  0
 15 17  4  0
 17 20  4  0
 18 23  1  0
 19 25  4  0
M  END
$$$$

 Created by Python create_sdf_string function

 25 28  0  0  0  0  0  0  0  0999 V2000
   13.1533   -5.2399   21.0682 C   0  0  0  0  0  0  0  0  0  0  0  0
   10.4729   -4.0295   17.6135 C   0  0  0  0  0  0  0  0  0  0  0  0
   10.4789   -4.3641   20.9564 C   0  0  0  0  0  0  0  0  0  0  0  0
    8.7421   -5.1412   16.3650 C   0  0  0  0  0  0  0  0  0  0  0  0
   11.4353   -2.9204   17.8044 C   0  0  0  0  0  0  0  0  0  0  0  0
   11.1529   -4.3028   22.1277 C   0  0  0  0  0  0  0  0  0  0  0  0
   11.1290   -4.8502   19.8052 C   0  0  0  0  0  0  0  0  0  0  0  0
   12.4329   -4.2159   24.4224 C   0  0  0  0  0  0  0  0  0  0  0  0
    3.4740   -9.0387   16.5022 C   0  0  0  0  0  0  0  0  0  0  0  0
    6.8384   -7.9290   17.5282 N   0  0  0  0  0  0  0  0  0  0  0  0
    9.4126   -5.9853   18.4899 C   0  0  0  0  0  0  0  0  0  0  0  0
    4.2064  -10.3242   18.3302 C   0  0  0  0  0  0  0  0  0  0  0  0
    9.6599   -4.1551   16.4796 N   0  0  0  0  0  0  0  0  0  0  0  0
    7.0644   -6.4612   15.7375 N   0  0  0  0  0  0  0  0  0  0  0  0
    5.3549   -9.6322   18.3190 C   0  0  0  0  0  0  0  0  0  0  0  0
   10.3704   -4.9638   18.6510 C   0  0  0  0  0  0  0  0  0  0  0  0
    5.5935   -8.6419   17.4234 C   0  0  0  0  0  0  0  0  0  0  0  0
   13.0726   -4.6648   23.3394 O   0  0  0  0  0  0  0  0  0  0  0  0
    8.5955   -6.0705   17.3996 C   0  0  0  0  0  0  0  0  0  0  0  0
    4.6223   -8.3832   16.5030 C   0  0  0  0  0  0  0  0  0  0  0  0
   12.4690   -5.2624   19.9024 C   0  0  0  0  0  0  0  0  0  0  0  0
    3.2548   -9.9919   17.4189 C   0  0  0  0  0  0  0  0  0  0  0  0
   12.4767   -4.7393   22.1790 C   0  0  0  0  0  0  0  0  0  0  0  0
    7.8593   -5.3772   15.3569 N   0  0  0  0  0  0  0  0  0  0  0  0
    7.4412   -6.9038   16.9283 C   0  0  0  0  0  0  0  0  0  0  0  0
  1 21  4  0
  1 23  4  0
  2  5  1  0
  2 13  4  0
  2 16  4  0
  3  6  4  0
  3  7  4  0
  4 13  4  0
  4 19  4  0
  4 24  4  0
  6 23  4  0
  7 16  1  0
  7 21  4  0
  8 18  1  0
  9 20  4  0
  9 22  4  0
 10 17  1  0
 10 25  1  0
 11 16  4  0
 11 19  4  0
 12 15  4  0
 12 22  4  0
 14 24  4  0
 14 25  4  0
 15 17  4  0
 17 20  4  0
 18 23  1  0
 19 25  4  0
M  END
$$$$

 Created by Python create_sdf_string function

 25 28  0  0  0  0  0  0  0  0999 V2000
   13.1533   -5.2399   21.0682 C   0  0  0  0  0  0  0  0  0  0  0  0
   10.4729   -4.0295   17.6135 C   0  0  0  0  0  0  0  0  0  0  0  0
   10.4789   -4.3641   20.9564 C   0  0  0  0  0  0  0  0  0  0  0  0
    8.7421   -5.1412   16.3650 C   0  0  0  0  0  0  0  0  0  0  0  0
   11.4353   -2.9204   17.8044 C   0  0  0  0  0  0  0  0  0  0  0  0
   11.1529   -4.3028   22.1277 C   0  0  0  0  0  0  0  0  0  0  0  0
   11.1290   -4.8502   19.8052 C   0  0  0  0  0  0  0  0  0  0  0  0
   12.4329   -4.2159   24.4224 C   0  0  0  0  0  0  0  0  0  0  0  0
    3.4740   -9.0387   16.5022 C   0  0  0  0  0  0  0  0  0  0  0  0
    6.8384   -7.9290   17.5282 N   0  0  0  0  0  0  0  0  0  0  0  0
    9.4126   -5.9853   18.4899 C   0  0  0  0  0  0  0  0  0  0  0  0
    4.2064  -10.3242   18.3302 C   0  0  0  0  0  0  0  0  0  0  0  0
    9.6599   -4.1551   16.4796 N   0  0  0  0  0  0  0  0  0  0  0  0
    7.0644   -6.4612   15.7375 N   0  0  0  0  0  0  0  0  0  0  0  0
    5.3549   -9.6322   18.3190 C   0  0  0  0  0  0  0  0  0  0  0  0
   10.3704   -4.9638   18.6510 C   0  0  0  0  0  0  0  0  0  0  0  0
    5.5935   -8.6419   17.4234 C   0  0  0  0  0  0  0  0  0  0  0  0
   13.0726   -4.6648   23.3394 O   0  0  0  0  0  0  0  0  0  0  0  0
    8.5955   -6.0705   17.3996 C   0  0  0  0  0  0  0  0  0  0  0  0
    4.6223   -8.3832   16.5030 C   0  0  0  0  0  0  0  0  0  0  0  0
   12.4690   -5.2624   19.9024 C   0  0  0  0  0  0  0  0  0  0  0  0
    3.2548   -9.9919   17.4189 C   0  0  0  0  0  0  0  0  0  0  0  0
   12.4767   -4.7393   22.1790 C   0  0  0  0  0  0  0  0  0  0  0  0
    7.8593   -5.3772   15.3569 N   0  0  0  0  0  0  0  0  0  0  0  0
    7.4412   -6.9038   16.9283 C   0  0  0  0  0  0  0  0  0  0  0  0
  1 21  4  0
  1 23  4  0
  2  5  1  0
  2 13  4  0
  2 16  4  0
  3  6  4  0
  3  7  4  0
  4 13  4  0
  4 19  4  0
  4 24  4  0
  6 23  4  0
  7 16  1  0
  7 21  4  0
  8 18  1  0
  9 20  4  0
  9 22  4  0
 10 17  1  0
 10 25  1  0
 11 16  4  0
 11 19  4  0
 12 15  4  0
 12 22  4  0
 14 24  4  0
 14 25  4  0
 15 17  4  0
 17 20  4  0
 18 23  1  0
 19 25  4  0
M  END
$$$$

 Created by Python create_sdf_string function

 25 28  0  0  0  0  0  0  0  0999 V2000
   13.1533   -5.2399   21.0682 C   0  0  0  0  0  0  0  0  0  0  0  0
   10.4729   -4.0295   17.6135 C   0  0  0  0  0  0  0  0  0  0  0  0
   10.4789   -4.3641   20.9564 C   0  0  0  0  0  0  0  0  0  0  0  0
    8.7421   -5.1412   16.3650 C   0  0  0  0  0  0  0  0  0  0  0  0
   11.4353   -2.9204   17.8044 C   0  0  0  0  0  0  0  0  0  0  0  0
   11.1529   -4.3028   22.1277 C   0  0  0  0  0  0  0  0  0  0  0  0
   11.1290   -4.8502   19.8052 C   0  0  0  0  0  0  0  0  0  0  0  0
   12.4329   -4.2159   24.4224 C   0  0  0  0  0  0  0  0  0  0  0  0
    3.4740   -9.0387   16.5022 C   0  0  0  0  0  0  0  0  0  0  0  0
    6.8384   -7.9290   17.5282 N   0  0  0  0  0  0  0  0  0  0  0  0
    9.4126   -5.9853   18.4899 C   0  0  0  0  0  0  0  0  0  0  0  0
    4.2064  -10.3242   18.3302 C   0  0  0  0  0  0  0  0  0  0  0  0
    9.6599   -4.1551   16.4796 N   0  0  0  0  0  0  0  0  0  0  0  0
    7.0644   -6.4612   15.7375 N   0  0  0  0  0  0  0  0  0  0  0  0
    5.3549   -9.6322   18.3190 C   0  0  0  0  0  0  0  0  0  0  0  0
   10.3704   -4.9638   18.6510 C   0  0  0  0  0  0  0  0  0  0  0  0
    5.5935   -8.6419   17.4234 C   0  0  0  0  0  0  0  0  0  0  0  0
   13.0726   -4.6648   23.3394 O   0  0  0  0  0  0  0  0  0  0  0  0
    8.5955   -6.0705   17.3996 C   0  0  0  0  0  0  0  0  0  0  0  0
    4.6223   -8.3832   16.5030 C   0  0  0  0  0  0  0  0  0  0  0  0
   12.4690   -5.2624   19.9024 C   0  0  0  0  0  0  0  0  0  0  0  0
    3.2548   -9.9919   17.4189 C   0  0  0  0  0  0  0  0  0  0  0  0
   12.4767   -4.7393   22.1790 C   0  0  0  0  0  0  0  0  0  0  0  0
    7.8593   -5.3772   15.3569 N   0  0  0  0  0  0  0  0  0  0  0  0
    7.4412   -6.9038   16.9283 C   0  0  0  0  0  0  0  0  0  0  0  0
  1 21  4  0
  1 23  4  0
  2  5  1  0
  2 13  4  0
  2 16  4  0
  3  6  4  0
  3  7  4  0
  4 13  4  0
  4 19  4  0
  4 24  4  0
  6 23  4  0
  7 16  1  0
  7 21  4  0
  8 18  1  0
  9 20  4  0
  9 22  4  0
 10 17  1  0
 10 25  1  0
 11 16  4  0
 11 19  4  0
 12 15  4  0
 12 22  4  0
 14 24  4  0
 14 25  4  0
 15 17  4  0
 17 20  4  0
 18 23  1  0
 19 25  4  0
M  END
$$$$

 Created by Python create_sdf_string function

 25 28  0  0  0  0  0  0  0  0999 V2000
   13.1533   -5.2399   21.0682 C   0  0  0  0  0  0  0  0  0  0  0  0
   10.4729   -4.0295   17.6135 C   0  0  0  0  0  0  0  0  0  0  0  0
   10.4789   -4.3641   20.9564 C   0  0  0  0  0  0  0  0  0  0  0  0
    8.7421   -5.1412   16.3650 C   0  0  0  0  0  0  0  0  0  0  0  0
   11.4353   -2.9204   17.8044 C   0  0  0  0  0  0  0  0  0  0  0  0
   11.1529   -4.3028   22.1277 C   0  0  0  0  0  0  0  0  0  0  0  0
   11.1290   -4.8502   19.8052 C   0  0  0  0  0  0  0  0  0  0  0  0
   12.4329   -4.2159   24.4224 C   0  0  0  0  0  0  0  0  0  0  0  0
    3.4740   -9.0387   16.5022 C   0  0  0  0  0  0  0  0  0  0  0  0
    6.8384   -7.9290   17.5282 N   0  0  0  0  0  0  0  0  0  0  0  0
    9.4126   -5.9853   18.4899 C   0  0  0  0  0  0  0  0  0  0  0  0
    4.2064  -10.3242   18.3302 C   0  0  0  0  0  0  0  0  0  0  0  0
    9.6599   -4.1551   16.4796 N   0  0  0  0  0  0  0  0  0  0  0  0
    7.0644   -6.4612   15.7375 N   0  0  0  0  0  0  0  0  0  0  0  0
    5.3549   -9.6322   18.3190 C   0  0  0  0  0  0  0  0  0  0  0  0
   10.3704   -4.9638   18.6510 C   0  0  0  0  0  0  0  0  0  0  0  0
    5.5935   -8.6419   17.4234 C   0  0  0  0  0  0  0  0  0  0  0  0
   13.0726   -4.6648   23.3394 O   0  0  0  0  0  0  0  0  0  0  0  0
    8.5955   -6.0705   17.3996 C   0  0  0  0  0  0  0  0  0  0  0  0
    4.6223   -8.3832   16.5030 C   0  0  0  0  0  0  0  0  0  0  0  0
   12.4690   -5.2624   19.9024 C   0  0  0  0  0  0  0  0  0  0  0  0
    3.2548   -9.9919   17.4189 C   0  0  0  0  0  0  0  0  0  0  0  0
   12.4767   -4.7393   22.1790 C   0  0  0  0  0  0  0  0  0  0  0  0
    7.8593   -5.3772   15.3569 N   0  0  0  0  0  0  0  0  0  0  0  0
    7.4412   -6.9038   16.9283 C   0  0  0  0  0  0  0  0  0  0  0  0
  1 21  4  0
  1 23  4  0
  2  5  1  0
  2 13  4  0
  2 16  4  0
  3  6  4  0
  3  7  4  0
  4 13  4  0
  4 19  4  0
  4 24  4  0
  6 23  4  0
  7 16  1  0
  7 21  4  0
  8 18  1  0
  9 20  4  0
  9 22  4  0
 10 17  1  0
 10 25  1  0
 11 16  4  0
 11 19  4  0
 12 15  4  0
 12 22  4  0
 14 24  4  0
 14 25  4  0
 15 17  4  0
 17 20  4  0
 18 23  1  0
 19 25  4  0
M  END
$$$$

 Created by Python create_sdf_string function

 25 28  0  0  0  0  0  0  0  0999 V2000
   13.1533   -5.2399   21.0682 C   0  0  0  0  0  0  0  0  0  0  0  0
   10.4729   -4.0295   17.6135 C   0  0  0  0  0  0  0  0  0  0  0  0
   10.4789   -4.3641   20.9564 C   0  0  0  0  0  0  0  0  0  0  0  0
    8.7421   -5.1412   16.3650 C   0  0  0  0  0  0  0  0  0  0  0  0
   11.4353   -2.9204   17.8044 C   0  0  0  0  0  0  0  0  0  0  0  0
   11.1529   -4.3028   22.1277 C   0  0  0  0  0  0  0  0  0  0  0  0
   11.1290   -4.8502   19.8052 C   0  0  0  0  0  0  0  0  0  0  0  0
   12.4329   -4.2159   24.4224 C   0  0  0  0  0  0  0  0  0  0  0  0
    3.4740   -9.0387   16.5022 C   0  0  0  0  0  0  0  0  0  0  0  0
    6.8384   -7.9290   17.5282 N   0  0  0  0  0  0  0  0  0  0  0  0
    9.4126   -5.9853   18.4899 C   0  0  0  0  0  0  0  0  0  0  0  0
    4.2064  -10.3242   18.3302 C   0  0  0  0  0  0  0  0  0  0  0  0
    9.6599   -4.1551   16.4796 N   0  0  0  0  0  0  0  0  0  0  0  0
    7.0644   -6.4612   15.7375 N   0  0  0  0  0  0  0  0  0  0  0  0
    5.3549   -9.6322   18.3190 C   0  0  0  0  0  0  0  0  0  0  0  0
   10.3704   -4.9638   18.6510 C   0  0  0  0  0  0  0  0  0  0  0  0
    5.5935   -8.6419   17.4234 C   0  0  0  0  0  0  0  0  0  0  0  0
   13.0726   -4.6648   23.3394 O   0  0  0  0  0  0  0  0  0  0  0  0
    8.5955   -6.0705   17.3996 C   0  0  0  0  0  0  0  0  0  0  0  0
    4.6223   -8.3832   16.5030 C   0  0  0  0  0  0  0  0  0  0  0  0
   12.4690   -5.2624   19.9024 C   0  0  0  0  0  0  0  0  0  0  0  0
    3.2548   -9.9919   17.4189 C   0  0  0  0  0  0  0  0  0  0  0  0
   12.4767   -4.7393   22.1790 C   0  0  0  0  0  0  0  0  0  0  0  0
    7.8593   -5.3772   15.3569 N   0  0  0  0  0  0  0  0  0  0  0  0
    7.4412   -6.9038   16.9283 C   0  0  0  0  0  0  0  0  0  0  0  0
  1 21  4  0
  1 23  4  0
  2  5  1  0
  2 13  4  0
  2 16  4  0
  3  6  4  0
  3  7  4  0
  4 13  4  0
  4 19  4  0
  4 24  4  0
  6 23  4  0
  7 16  1  0
  7 21  4  0
  8 18  1  0
  9 20  4  0
  9 22  4  0
 10 17  1  0
 10 25  1  0
 11 16  4  0
 11 19  4  0
 12 15  4  0
 12 22  4  0
 14 24  4  0
 14 25  4  0
 15 17  4  0
 17 20  4  0
 18 23  1  0
 19 25  4  0
M  END
$$$$

 Created by Python create_sdf_string function

 25 28  0  0  0  0  0  0  0  0999 V2000
   13.1533   -5.2399   21.0682 C   0  0  0  0  0  0  0  0  0  0  0  0
   10.4729   -4.0295   17.6135 C   0  0  0  0  0  0  0  0  0  0  0  0
   10.4789   -4.3641   20.9564 C   0  0  0  0  0  0  0  0  0  0  0  0
    8.7421   -5.1412   16.3650 C   0  0  0  0  0  0  0  0  0  0  0  0
   11.4353   -2.9204   17.8044 C   0  0  0  0  0  0  0  0  0  0  0  0
   11.1529   -4.3028   22.1277 C   0  0  0  0  0  0  0  0  0  0  0  0
   11.1290   -4.8502   19.8052 C   0  0  0  0  0  0  0  0  0  0  0  0
   12.4329   -4.2159   24.4224 C   0  0  0  0  0  0  0  0  0  0  0  0
    3.4740   -9.0387   16.5022 C   0  0  0  0  0  0  0  0  0  0  0  0
    6.8384   -7.9290   17.5282 N   0  0  0  0  0  0  0  0  0  0  0  0
    9.4126   -5.9853   18.4899 C   0  0  0  0  0  0  0  0  0  0  0  0
    4.2064  -10.3242   18.3302 C   0  0  0  0  0  0  0  0  0  0  0  0
    9.6599   -4.1551   16.4796 N   0  0  0  0  0  0  0  0  0  0  0  0
    7.0644   -6.4612   15.7375 N   0  0  0  0  0  0  0  0  0  0  0  0
    5.3549   -9.6322   18.3190 C   0  0  0  0  0  0  0  0  0  0  0  0
   10.3704   -4.9638   18.6510 C   0  0  0  0  0  0  0  0  0  0  0  0
    5.5935   -8.6419   17.4234 C   0  0  0  0  0  0  0  0  0  0  0  0
   13.0726   -4.6648   23.3394 O   0  0  0  0  0  0  0  0  0  0  0  0
    8.5955   -6.0705   17.3996 C   0  0  0  0  0  0  0  0  0  0  0  0
    4.6223   -8.3832   16.5030 C   0  0  0  0  0  0  0  0  0  0  0  0
   12.4690   -5.2624   19.9024 C   0  0  0  0  0  0  0  0  0  0  0  0
    3.2548   -9.9919   17.4189 C   0  0  0  0  0  0  0  0  0  0  0  0
   12.4767   -4.7393   22.1790 C   0  0  0  0  0  0  0  0  0  0  0  0
    7.8593   -5.3772   15.3569 N   0  0  0  0  0  0  0  0  0  0  0  0
    7.4412   -6.9038   16.9283 C   0  0  0  0  0  0  0  0  0  0  0  0
  1 21  4  0
  1 23  4  0
  2  5  1  0
  2 13  4  0
  2 16  4  0
  3  6  4  0
  3  7  4  0
  4 13  4  0
  4 19  4  0
  4 24  4  0
  6 23  4  0
  7 16  1  0
  7 21  4  0
  8 18  1  0
  9 20  4  0
  9 22  4  0
 10 17  1  0
 10 25  1  0
 11 16  4  0
 11 19  4  0
 12 15  4  0
 12 22  4  0
 14 24  4  0
 14 25  4  0
 15 17  4  0
 17 20  4  0
 18 23  1  0
 19 25  4  0
M  END
$$$$

 Created by Python create_sdf_string function

 25 28  0  0  0  0  0  0  0  0999 V2000
   13.1533   -5.2399   21.0682 C   0  0  0  0  0  0  0  0  0  0  0  0
   10.4729   -4.0295   17.6135 C   0  0  0  0  0  0  0  0  0  0  0  0
   10.4789   -4.3641   20.9564 C   0  0  0  0  0  0  0  0  0  0  0  0
    8.7421   -5.1412   16.3650 C   0  0  0  0  0  0  0  0  0  0  0  0
   11.4353   -2.9204   17.8044 C   0  0  0  0  0  0  0  0  0  0  0  0
   11.1529   -4.3028   22.1277 C   0  0  0  0  0  0  0  0  0  0  0  0
   11.1290   -4.8502   19.8052 C   0  0  0  0  0  0  0  0  0  0  0  0
   12.4329   -4.2159   24.4224 C   0  0  0  0  0  0  0  0  0  0  0  0
    3.4740   -9.0387   16.5022 C   0  0  0  0  0  0  0  0  0  0  0  0
    6.8384   -7.9290   17.5282 N   0  0  0  0  0  0  0  0  0  0  0  0
    9.4126   -5.9853   18.4899 C   0  0  0  0  0  0  0  0  0  0  0  0
    4.2064  -10.3242   18.3302 C   0  0  0  0  0  0  0  0  0  0  0  0
    9.6599   -4.1551   16.4796 N   0  0  0  0  0  0  0  0  0  0  0  0
    7.0644   -6.4612   15.7375 N   0  0  0  0  0  0  0  0  0  0  0  0
    5.3549   -9.6322   18.3190 C   0  0  0  0  0  0  0  0  0  0  0  0
   10.3704   -4.9638   18.6510 C   0  0  0  0  0  0  0  0  0  0  0  0
    5.5935   -8.6419   17.4234 C   0  0  0  0  0  0  0  0  0  0  0  0
   13.0726   -4.6648   23.3394 O   0  0  0  0  0  0  0  0  0  0  0  0
    8.5955   -6.0705   17.3996 C   0  0  0  0  0  0  0  0  0  0  0  0
    4.6223   -8.3832   16.5030 C   0  0  0  0  0  0  0  0  0  0  0  0
   12.4690   -5.2624   19.9024 C   0  0  0  0  0  0  0  0  0  0  0  0
    3.2548   -9.9919   17.4189 C   0  0  0  0  0  0  0  0  0  0  0  0
   12.4767   -4.7393   22.1790 C   0  0  0  0  0  0  0  0  0  0  0  0
    7.8593   -5.3772   15.3569 N   0  0  0  0  0  0  0  0  0  0  0  0
    7.4412   -6.9038   16.9283 C   0  0  0  0  0  0  0  0  0  0  0  0
  1 21  4  0
  1 23  4  0
  2  5  1  0
  2 13  4  0
  2 16  4  0
  3  6  4  0
  3  7  4  0
  4 13  4  0
  4 19  4  0
  4 24  4  0
  6 23  4  0
  7 16  1  0
  7 21  4  0
  8 18  1  0
  9 20  4  0
  9 22  4  0
 10 17  1  0
 10 25  1  0
 11 16  4  0
 11 19  4  0
 12 15  4  0
 12 22  4  0
 14 24  4  0
 14 25  4  0
 15 17  4  0
 17 20  4  0
 18 23  1  0
 19 25  4  0
M  END
$$$$

 Created by Python create_sdf_string function

 25 28  0  0  0  0  0  0  0  0999 V2000
   13.1533   -5.2399   21.0682 C   0  0  0  0  0  0  0  0  0  0  0  0
   10.4729   -4.0295   17.6135 C   0  0  0  0  0  0  0  0  0  0  0  0
   10.4789   -4.3641   20.9564 C   0  0  0  0  0  0  0  0  0  0  0  0
    8.7421   -5.1412   16.3650 C   0  0  0  0  0  0  0  0  0  0  0  0
   11.4353   -2.9204   17.8044 C   0  0  0  0  0  0  0  0  0  0  0  0
   11.1529   -4.3028   22.1277 C   0  0  0  0  0  0  0  0  0  0  0  0
   11.1290   -4.8502   19.8052 C   0  0  0  0  0  0  0  0  0  0  0  0
   12.4329   -4.2159   24.4224 C   0  0  0  0  0  0  0  0  0  0  0  0
    3.4740   -9.0387   16.5022 C   0  0  0  0  0  0  0  0  0  0  0  0
    6.8384   -7.9290   17.5282 N   0  0  0  0  0  0  0  0  0  0  0  0
    9.4126   -5.9853   18.4899 C   0  0  0  0  0  0  0  0  0  0  0  0
    4.2064  -10.3242   18.3302 C   0  0  0  0  0  0  0  0  0  0  0  0
    9.6599   -4.1551   16.4796 N   0  0  0  0  0  0  0  0  0  0  0  0
    7.0644   -6.4612   15.7375 N   0  0  0  0  0  0  0  0  0  0  0  0
    5.3549   -9.6322   18.3190 C   0  0  0  0  0  0  0  0  0  0  0  0
   10.3704   -4.9638   18.6510 C   0  0  0  0  0  0  0  0  0  0  0  0
    5.5935   -8.6419   17.4234 C   0  0  0  0  0  0  0  0  0  0  0  0
   13.0726   -4.6648   23.3394 O   0  0  0  0  0  0  0  0  0  0  0  0
    8.5955   -6.0705   17.3996 C   0  0  0  0  0  0  0  0  0  0  0  0
    4.6223   -8.3832   16.5030 C   0  0  0  0  0  0  0  0  0  0  0  0
   12.4690   -5.2624   19.9024 C   0  0  0  0  0  0  0  0  0  0  0  0
    3.2548   -9.9919   17.4189 C   0  0  0  0  0  0  0  0  0  0  0  0
   12.4767   -4.7393   22.1790 C   0  0  0  0  0  0  0  0  0  0  0  0
    7.8593   -5.3772   15.3569 N   0  0  0  0  0  0  0  0  0  0  0  0
    7.4412   -6.9038   16.9283 C   0  0  0  0  0  0  0  0  0  0  0  0
  1 21  4  0
  1 23  4  0
  2  5  1  0
  2 13  4  0
  2 16  4  0
  3  6  4  0
  3  7  4  0
  4 13  4  0
  4 19  4  0
  4 24  4  0
  6 23  4  0
  7 16  1  0
  7 21  4  0
  8 18  1  0
  9 20  4  0
  9 22  4  0
 10 17  1  0
 10 25  1  0
 11 16  4  0
 11 19  4  0
 12 15  4  0
 12 22  4  0
 14 24  4  0
 14 25  4  0
 15 17  4  0
 17 20  4  0
 18 23  1  0
 19 25  4  0
M  END
$$$$

 Created by Python create_sdf_string function

 25 28  0  0  0  0  0  0  0  0999 V2000
   13.1533   -5.2399   21.0682 C   0  0  0  0  0  0  0  0  0  0  0  0
   10.4729   -4.0295   17.6135 C   0  0  0  0  0  0  0  0  0  0  0  0
   10.4789   -4.3641   20.9564 C   0  0  0  0  0  0  0  0  0  0  0  0
    8.7421   -5.1412   16.3650 C   0  0  0  0  0  0  0  0  0  0  0  0
   11.4353   -2.9204   17.8044 C   0  0  0  0  0  0  0  0  0  0  0  0
   11.1529   -4.3028   22.1277 C   0  0  0  0  0  0  0  0  0  0  0  0
   11.1290   -4.8502   19.8052 C   0  0  0  0  0  0  0  0  0  0  0  0
   12.4329   -4.2159   24.4224 C   0  0  0  0  0  0  0  0  0  0  0  0
    3.4740   -9.0387   16.5022 C   0  0  0  0  0  0  0  0  0  0  0  0
    6.8384   -7.9290   17.5282 N   0  0  0  0  0  0  0  0  0  0  0  0
    9.4126   -5.9853   18.4899 C   0  0  0  0  0  0  0  0  0  0  0  0
    4.2064  -10.3242   18.3302 C   0  0  0  0  0  0  0  0  0  0  0  0
    9.6599   -4.1551   16.4796 N   0  0  0  0  0  0  0  0  0  0  0  0
    7.0644   -6.4612   15.7375 N   0  0  0  0  0  0  0  0  0  0  0  0
    5.3549   -9.6322   18.3190 C   0  0  0  0  0  0  0  0  0  0  0  0
   10.3704   -4.9638   18.6510 C   0  0  0  0  0  0  0  0  0  0  0  0
    5.5935   -8.6419   17.4234 C   0  0  0  0  0  0  0  0  0  0  0  0
   13.0726   -4.6648   23.3394 O   0  0  0  0  0  0  0  0  0  0  0  0
    8.5955   -6.0705   17.3996 C   0  0  0  0  0  0  0  0  0  0  0  0
    4.6223   -8.3832   16.5030 C   0  0  0  0  0  0  0  0  0  0  0  0
   12.4690   -5.2624   19.9024 C   0  0  0  0  0  0  0  0  0  0  0  0
    3.2548   -9.9919   17.4189 C   0  0  0  0  0  0  0  0  0  0  0  0
   12.4767   -4.7393   22.1790 C   0  0  0  0  0  0  0  0  0  0  0  0
    7.8593   -5.3772   15.3569 N   0  0  0  0  0  0  0  0  0  0  0  0
    7.4412   -6.9038   16.9283 C   0  0  0  0  0  0  0  0  0  0  0  0
  1 21  4  0
  1 23  4  0
  2  5  1  0
  2 13  4  0
  2 16  4  0
  3  6  4  0
  3  7  4  0
  4 13  4  0
  4 19  4  0
  4 24  4  0
  6 23  4  0
  7 16  1  0
  7 21  4  0
  8 18  1  0
  9 20  4  0
  9 22  4  0
 10 17  1  0
 10 25  1  0
 11 16  4  0
 11 19  4  0
 12 15  4  0
 12 22  4  0
 14 24  4  0
 14 25  4  0
 15 17  4  0
 17 20  4  0
 18 23  1  0
 19 25  4  0
M  END
$$$$

 Created by Python create_sdf_string function

 25 28  0  0  0  0  0  0  0  0999 V2000
   13.1533   -5.2399   21.0682 C   0  0  0  0  0  0  0  0  0  0  0  0
   10.4729   -4.0295   17.6135 C   0  0  0  0  0  0  0  0  0  0  0  0
   10.4789   -4.3641   20.9564 C   0  0  0  0  0  0  0  0  0  0  0  0
    8.7421   -5.1412   16.3650 C   0  0  0  0  0  0  0  0  0  0  0  0
   11.4353   -2.9204   17.8044 C   0  0  0  0  0  0  0  0  0  0  0  0
   11.1529   -4.3028   22.1277 C   0  0  0  0  0  0  0  0  0  0  0  0
   11.1290   -4.8502   19.8052 C   0  0  0  0  0  0  0  0  0  0  0  0
   12.4329   -4.2159   24.4224 C   0  0  0  0  0  0  0  0  0  0  0  0
    3.4740   -9.0387   16.5022 C   0  0  0  0  0  0  0  0  0  0  0  0
    6.8384   -7.9290   17.5282 N   0  0  0  0  0  0  0  0  0  0  0  0
    9.4126   -5.9853   18.4899 C   0  0  0  0  0  0  0  0  0  0  0  0
    4.2064  -10.3242   18.3302 C   0  0  0  0  0  0  0  0  0  0  0  0
    9.6599   -4.1551   16.4796 N   0  0  0  0  0  0  0  0  0  0  0  0
    7.0644   -6.4612   15.7375 N   0  0  0  0  0  0  0  0  0  0  0  0
    5.3549   -9.6322   18.3190 C   0  0  0  0  0  0  0  0  0  0  0  0
   10.3704   -4.9638   18.6510 C   0  0  0  0  0  0  0  0  0  0  0  0
    5.5935   -8.6419   17.4234 C   0  0  0  0  0  0  0  0  0  0  0  0
   13.0726   -4.6648   23.3394 O   0  0  0  0  0  0  0  0  0  0  0  0
    8.5955   -6.0705   17.3996 C   0  0  0  0  0  0  0  0  0  0  0  0
    4.6223   -8.3832   16.5030 C   0  0  0  0  0  0  0  0  0  0  0  0
   12.4690   -5.2624   19.9024 C   0  0  0  0  0  0  0  0  0  0  0  0
    3.2548   -9.9919   17.4189 C   0  0  0  0  0  0  0  0  0  0  0  0
   12.4767   -4.7393   22.1790 C   0  0  0  0  0  0  0  0  0  0  0  0
    7.8593   -5.3772   15.3569 N   0  0  0  0  0  0  0  0  0  0  0  0
    7.4412   -6.9038   16.9283 C   0  0  0  0  0  0  0  0  0  0  0  0
  1 21  4  0
  1 23  4  0
  2  5  1  0
  2 13  4  0
  2 16  4  0
  3  6  4  0
  3  7  4  0
  4 13  4  0
  4 19  4  0
  4 24  4  0
  6 23  4  0
  7 16  1  0
  7 21  4  0
  8 18  1  0
  9 20  4  0
  9 22  4  0
 10 17  1  0
 10 25  1  0
 11 16  4  0
 11 19  4  0
 12 15  4  0
 12 22  4  0
 14 24  4  0
 14 25  4  0
 15 17  4  0
 17 20  4  0
 18 23  1  0
 19 25  4  0
M  END
$$$$

 Created by Python create_sdf_string function

 25 28  0  0  0  0  0  0  0  0999 V2000
   13.1533   -5.2399   21.0682 C   0  0  0  0  0  0  0  0  0  0  0  0
   10.4729   -4.0295   17.6135 C   0  0  0  0  0  0  0  0  0  0  0  0
   10.4789   -4.3641   20.9564 C   0  0  0  0  0  0  0  0  0  0  0  0
    8.7421   -5.1412   16.3650 C   0  0  0  0  0  0  0  0  0  0  0  0
   11.4353   -2.9204   17.8044 C   0  0  0  0  0  0  0  0  0  0  0  0
   11.1529   -4.3028   22.1277 C   0  0  0  0  0  0  0  0  0  0  0  0
   11.1290   -4.8502   19.8052 C   0  0  0  0  0  0  0  0  0  0  0  0
   12.4329   -4.2159   24.4224 C   0  0  0  0  0  0  0  0  0  0  0  0
    3.4740   -9.0387   16.5022 C   0  0  0  0  0  0  0  0  0  0  0  0
    6.8384   -7.9290   17.5282 N   0  0  0  0  0  0  0  0  0  0  0  0
    9.4126   -5.9853   18.4899 C   0  0  0  0  0  0  0  0  0  0  0  0
    4.2064  -10.3242   18.3302 C   0  0  0  0  0  0  0  0  0  0  0  0
    9.6599   -4.1551   16.4796 N   0  0  0  0  0  0  0  0  0  0  0  0
    7.0644   -6.4612   15.7375 N   0  0  0  0  0  0  0  0  0  0  0  0
    5.3549   -9.6322   18.3190 C   0  0  0  0  0  0  0  0  0  0  0  0
   10.3704   -4.9638   18.6510 C   0  0  0  0  0  0  0  0  0  0  0  0
    5.5935   -8.6419   17.4234 C   0  0  0  0  0  0  0  0  0  0  0  0
   13.0726   -4.6648   23.3394 O   0  0  0  0  0  0  0  0  0  0  0  0
    8.5955   -6.0705   17.3996 C   0  0  0  0  0  0  0  0  0  0  0  0
    4.6223   -8.3832   16.5030 C   0  0  0  0  0  0  0  0  0  0  0  0
   12.4690   -5.2624   19.9024 C   0  0  0  0  0  0  0  0  0  0  0  0
    3.2548   -9.9919   17.4189 C   0  0  0  0  0  0  0  0  0  0  0  0
   12.4767   -4.7393   22.1790 C   0  0  0  0  0  0  0  0  0  0  0  0
    7.8593   -5.3772   15.3569 N   0  0  0  0  0  0  0  0  0  0  0  0
    7.4412   -6.9038   16.9283 C   0  0  0  0  0  0  0  0  0  0  0  0
  1 21  4  0
  1 23  4  0
  2  5  1  0
  2 13  4  0
  2 16  4  0
  3  6  4  0
  3  7  4  0
  4 13  4  0
  4 19  4  0
  4 24  4  0
  6 23  4  0
  7 16  1  0
  7 21  4  0
  8 18  1  0
  9 20  4  0
  9 22  4  0
 10 17  1  0
 10 25  1  0
 11 16  4  0
 11 19  4  0
 12 15  4  0
 12 22  4  0
 14 24  4  0
 14 25  4  0
 15 17  4  0
 17 20  4  0
 18 23  1  0
 19 25  4  0
M  END
$$$$

 Created by Python create_sdf_string function

 25 28  0  0  0  0  0  0  0  0999 V2000
   13.1533   -5.2399   21.0682 C   0  0  0  0  0  0  0  0  0  0  0  0
   10.4729   -4.0295   17.6135 C   0  0  0  0  0  0  0  0  0  0  0  0
   10.4789   -4.3641   20.9564 C   0  0  0  0  0  0  0  0  0  0  0  0
    8.7421   -5.1412   16.3650 C   0  0  0  0  0  0  0  0  0  0  0  0
   11.4353   -2.9204   17.8044 C   0  0  0  0  0  0  0  0  0  0  0  0
   11.1529   -4.3028   22.1277 C   0  0  0  0  0  0  0  0  0  0  0  0
   11.1290   -4.8502   19.8052 C   0  0  0  0  0  0  0  0  0  0  0  0
   12.4329   -4.2159   24.4224 C   0  0  0  0  0  0  0  0  0  0  0  0
    3.4740   -9.0387   16.5022 C   0  0  0  0  0  0  0  0  0  0  0  0
    6.8384   -7.9290   17.5282 N   0  0  0  0  0  0  0  0  0  0  0  0
    9.4126   -5.9853   18.4899 C   0  0  0  0  0  0  0  0  0  0  0  0
    4.2064  -10.3242   18.3302 C   0  0  0  0  0  0  0  0  0  0  0  0
    9.6599   -4.1551   16.4796 N   0  0  0  0  0  0  0  0  0  0  0  0
    7.0644   -6.4612   15.7375 N   0  0  0  0  0  0  0  0  0  0  0  0
    5.3549   -9.6322   18.3190 C   0  0  0  0  0  0  0  0  0  0  0  0
   10.3704   -4.9638   18.6510 C   0  0  0  0  0  0  0  0  0  0  0  0
    5.5935   -8.6419   17.4234 C   0  0  0  0  0  0  0  0  0  0  0  0
   13.0726   -4.6648   23.3394 O   0  0  0  0  0  0  0  0  0  0  0  0
    8.5955   -6.0705   17.3996 C   0  0  0  0  0  0  0  0  0  0  0  0
    4.6223   -8.3832   16.5030 C   0  0  0  0  0  0  0  0  0  0  0  0
   12.4690   -5.2624   19.9024 C   0  0  0  0  0  0  0  0  0  0  0  0
    3.2548   -9.9919   17.4189 C   0  0  0  0  0  0  0  0  0  0  0  0
   12.4767   -4.7393   22.1790 C   0  0  0  0  0  0  0  0  0  0  0  0
    7.8593   -5.3772   15.3569 N   0  0  0  0  0  0  0  0  0  0  0  0
    7.4412   -6.9038   16.9283 C   0  0  0  0  0  0  0  0  0  0  0  0
  1 21  4  0
  1 23  4  0
  2  5  1  0
  2 13  4  0
  2 16  4  0
  3  6  4  0
  3  7  4  0
  4 13  4  0
  4 19  4  0
  4 24  4  0
  6 23  4  0
  7 16  1  0
  7 21  4  0
  8 18  1  0
  9 20  4  0
  9 22  4  0
 10 17  1  0
 10 25  1  0
 11 16  4  0
 11 19  4  0
 12 15  4  0
 12 22  4  0
 14 24  4  0
 14 25  4  0
 15 17  4  0
 17 20  4  0
 18 23  1  0
 19 25  4  0
M  END
$$$$

 Created by Python create_sdf_string function

 25 28  0  0  0  0  0  0  0  0999 V2000
   13.1533   -5.2399   21.0682 C   0  0  0  0  0  0  0  0  0  0  0  0
   10.4729   -4.0295   17.6135 C   0  0  0  0  0  0  0  0  0  0  0  0
   10.4789   -4.3641   20.9564 C   0  0  0  0  0  0  0  0  0  0  0  0
    8.7421   -5.1412   16.3650 C   0  0  0  0  0  0  0  0  0  0  0  0
   11.4353   -2.9204   17.8044 C   0  0  0  0  0  0  0  0  0  0  0  0
   11.1529   -4.3028   22.1277 C   0  0  0  0  0  0  0  0  0  0  0  0
   11.1290   -4.8502   19.8052 C   0  0  0  0  0  0  0  0  0  0  0  0
   12.4329   -4.2159   24.4224 C   0  0  0  0  0  0  0  0  0  0  0  0
    3.4740   -9.0387   16.5022 C   0  0  0  0  0  0  0  0  0  0  0  0
    6.8384   -7.9290   17.5282 N   0  0  0  0  0  0  0  0  0  0  0  0
    9.4126   -5.9853   18.4899 C   0  0  0  0  0  0  0  0  0  0  0  0
    4.2064  -10.3242   18.3302 C   0  0  0  0  0  0  0  0  0  0  0  0
    9.6599   -4.1551   16.4796 N   0  0  0  0  0  0  0  0  0  0  0  0
    7.0644   -6.4612   15.7375 N   0  0  0  0  0  0  0  0  0  0  0  0
    5.3549   -9.6322   18.3190 C   0  0  0  0  0  0  0  0  0  0  0  0
   10.3704   -4.9638   18.6510 C   0  0  0  0  0  0  0  0  0  0  0  0
    5.5935   -8.6419   17.4234 C   0  0  0  0  0  0  0  0  0  0  0  0
   13.0726   -4.6648   23.3394 O   0  0  0  0  0  0  0  0  0  0  0  0
    8.5955   -6.0705   17.3996 C   0  0  0  0  0  0  0  0  0  0  0  0
    4.6223   -8.3832   16.5030 C   0  0  0  0  0  0  0  0  0  0  0  0
   12.4690   -5.2624   19.9024 C   0  0  0  0  0  0  0  0  0  0  0  0
    3.2548   -9.9919   17.4189 C   0  0  0  0  0  0  0  0  0  0  0  0
   12.4767   -4.7393   22.1790 C   0  0  0  0  0  0  0  0  0  0  0  0
    7.8593   -5.3772   15.3569 N   0  0  0  0  0  0  0  0  0  0  0  0
    7.4412   -6.9038   16.9283 C   0  0  0  0  0  0  0  0  0  0  0  0
  1 21  4  0
  1 23  4  0
  2  5  1  0
  2 13  4  0
  2 16  4  0
  3  6  4  0
  3  7  4  0
  4 13  4  0
  4 19  4  0
  4 24  4  0
  6 23  4  0
  7 16  1  0
  7 21  4  0
  8 18  1  0
  9 20  4  0
  9 22  4  0
 10 17  1  0
 10 25  1  0
 11 16  4  0
 11 19  4  0
 12 15  4  0
 12 22  4  0
 14 24  4  0
 14 25  4  0
 15 17  4  0
 17 20  4  0
 18 23  1  0
 19 25  4  0
M  END
$$$$

 Created by Python create_sdf_string function

 25 28  0  0  0  0  0  0  0  0999 V2000
   13.1533   -5.2399   21.0682 C   0  0  0  0  0  0  0  0  0  0  0  0
   10.4729   -4.0295   17.6135 C   0  0  0  0  0  0  0  0  0  0  0  0
   10.4789   -4.3641   20.9564 C   0  0  0  0  0  0  0  0  0  0  0  0
    8.7421   -5.1412   16.3650 C   0  0  0  0  0  0  0  0  0  0  0  0
   11.4353   -2.9204   17.8044 C   0  0  0  0  0  0  0  0  0  0  0  0
   11.1529   -4.3028   22.1277 C   0  0  0  0  0  0  0  0  0  0  0  0
   11.1290   -4.8502   19.8052 C   0  0  0  0  0  0  0  0  0  0  0  0
   12.4329   -4.2159   24.4224 C   0  0  0  0  0  0  0  0  0  0  0  0
    3.4740   -9.0387   16.5022 C   0  0  0  0  0  0  0  0  0  0  0  0
    6.8384   -7.9290   17.5282 N   0  0  0  0  0  0  0  0  0  0  0  0
    9.4126   -5.9853   18.4899 C   0  0  0  0  0  0  0  0  0  0  0  0
    4.2064  -10.3242   18.3302 C   0  0  0  0  0  0  0  0  0  0  0  0
    9.6599   -4.1551   16.4796 N   0  0  0  0  0  0  0  0  0  0  0  0
    7.0644   -6.4612   15.7375 N   0  0  0  0  0  0  0  0  0  0  0  0
    5.3549   -9.6322   18.3190 C   0  0  0  0  0  0  0  0  0  0  0  0
   10.3704   -4.9638   18.6510 C   0  0  0  0  0  0  0  0  0  0  0  0
    5.5935   -8.6419   17.4234 C   0  0  0  0  0  0  0  0  0  0  0  0
   13.0726   -4.6648   23.3394 O   0  0  0  0  0  0  0  0  0  0  0  0
    8.5955   -6.0705   17.3996 C   0  0  0  0  0  0  0  0  0  0  0  0
    4.6223   -8.3832   16.5030 C   0  0  0  0  0  0  0  0  0  0  0  0
   12.4690   -5.2624   19.9024 C   0  0  0  0  0  0  0  0  0  0  0  0
    3.2548   -9.9919   17.4189 C   0  0  0  0  0  0  0  0  0  0  0  0
   12.4767   -4.7393   22.1790 C   0  0  0  0  0  0  0  0  0  0  0  0
    7.8593   -5.3772   15.3569 N   0  0  0  0  0  0  0  0  0  0  0  0
    7.4412   -6.9038   16.9283 C   0  0  0  0  0  0  0  0  0  0  0  0
  1 21  4  0
  1 23  4  0
  2  5  1  0
  2 13  4  0
  2 16  4  0
  3  6  4  0
  3  7  4  0
  4 13  4  0
  4 19  4  0
  4 24  4  0
  6 23  4  0
  7 16  1  0
  7 21  4  0
  8 18  1  0
  9 20  4  0
  9 22  4  0
 10 17  1  0
 10 25  1  0
 11 16  4  0
 11 19  4  0
 12 15  4  0
 12 22  4  0
 14 24  4  0
 14 25  4  0
 15 17  4  0
 17 20  4  0
 18 23  1  0
 19 25  4  0
M  END
$$$$

 Created by Python create_sdf_string function

 25 28  0  0  0  0  0  0  0  0999 V2000
   13.1533   -5.2399   21.0682 C   0  0  0  0  0  0  0  0  0  0  0  0
   10.4729   -4.0295   17.6135 C   0  0  0  0  0  0  0  0  0  0  0  0
   10.4789   -4.3641   20.9564 C   0  0  0  0  0  0  0  0  0  0  0  0
    8.7421   -5.1412   16.3650 C   0  0  0  0  0  0  0  0  0  0  0  0
   11.4353   -2.9204   17.8044 C   0  0  0  0  0  0  0  0  0  0  0  0
   11.1529   -4.3028   22.1277 C   0  0  0  0  0  0  0  0  0  0  0  0
   11.1290   -4.8502   19.8052 C   0  0  0  0  0  0  0  0  0  0  0  0
   12.4329   -4.2159   24.4224 C   0  0  0  0  0  0  0  0  0  0  0  0
    3.4740   -9.0387   16.5022 C   0  0  0  0  0  0  0  0  0  0  0  0
    6.8384   -7.9290   17.5282 N   0  0  0  0  0  0  0  0  0  0  0  0
    9.4126   -5.9853   18.4899 C   0  0  0  0  0  0  0  0  0  0  0  0
    4.2064  -10.3242   18.3302 C   0  0  0  0  0  0  0  0  0  0  0  0
    9.6599   -4.1551   16.4796 N   0  0  0  0  0  0  0  0  0  0  0  0
    7.0644   -6.4612   15.7375 N   0  0  0  0  0  0  0  0  0  0  0  0
    5.3549   -9.6322   18.3190 C   0  0  0  0  0  0  0  0  0  0  0  0
   10.3704   -4.9638   18.6510 C   0  0  0  0  0  0  0  0  0  0  0  0
    5.5935   -8.6419   17.4234 C   0  0  0  0  0  0  0  0  0  0  0  0
   13.0726   -4.6648   23.3394 O   0  0  0  0  0  0  0  0  0  0  0  0
    8.5955   -6.0705   17.3996 C   0  0  0  0  0  0  0  0  0  0  0  0
    4.6223   -8.3832   16.5030 C   0  0  0  0  0  0  0  0  0  0  0  0
   12.4690   -5.2624   19.9024 C   0  0  0  0  0  0  0  0  0  0  0  0
    3.2548   -9.9919   17.4189 C   0  0  0  0  0  0  0  0  0  0  0  0
   12.4767   -4.7393   22.1790 C   0  0  0  0  0  0  0  0  0  0  0  0
    7.8593   -5.3772   15.3569 N   0  0  0  0  0  0  0  0  0  0  0  0
    7.4412   -6.9038   16.9283 C   0  0  0  0  0  0  0  0  0  0  0  0
  1 21  4  0
  1 23  4  0
  2  5  1  0
  2 13  4  0
  2 16  4  0
  3  6  4  0
  3  7  4  0
  4 13  4  0
  4 19  4  0
  4 24  4  0
  6 23  4  0
  7 16  1  0
  7 21  4  0
  8 18  1  0
  9 20  4  0
  9 22  4  0
 10 17  1  0
 10 25  1  0
 11 16  4  0
 11 19  4  0
 12 15  4  0
 12 22  4  0
 14 24  4  0
 14 25  4  0
 15 17  4  0
 17 20  4  0
 18 23  1  0
 19 25  4  0
M  END
$$$$

 Created by Python create_sdf_string function

 25 28  0  0  0  0  0  0  0  0999 V2000
   13.1533   -5.2399   21.0682 C   0  0  0  0  0  0  0  0  0  0  0  0
   10.4729   -4.0295   17.6135 C   0  0  0  0  0  0  0  0  0  0  0  0
   10.4789   -4.3641   20.9564 C   0  0  0  0  0  0  0  0  0  0  0  0
    8.7421   -5.1412   16.3650 C   0  0  0  0  0  0  0  0  0  0  0  0
   11.4353   -2.9204   17.8044 C   0  0  0  0  0  0  0  0  0  0  0  0
   11.1529   -4.3028   22.1277 C   0  0  0  0  0  0  0  0  0  0  0  0
   11.1290   -4.8502   19.8052 C   0  0  0  0  0  0  0  0  0  0  0  0
   12.4329   -4.2159   24.4224 C   0  0  0  0  0  0  0  0  0  0  0  0
    3.4740   -9.0387   16.5022 C   0  0  0  0  0  0  0  0  0  0  0  0
    6.8384   -7.9290   17.5282 N   0  0  0  0  0  0  0  0  0  0  0  0
    9.4126   -5.9853   18.4899 C   0  0  0  0  0  0  0  0  0  0  0  0
    4.2064  -10.3242   18.3302 C   0  0  0  0  0  0  0  0  0  0  0  0
    9.6599   -4.1551   16.4796 N   0  0  0  0  0  0  0  0  0  0  0  0
    7.0644   -6.4612   15.7375 N   0  0  0  0  0  0  0  0  0  0  0  0
    5.3549   -9.6322   18.3190 C   0  0  0  0  0  0  0  0  0  0  0  0
   10.3704   -4.9638   18.6510 C   0  0  0  0  0  0  0  0  0  0  0  0
    5.5935   -8.6419   17.4234 C   0  0  0  0  0  0  0  0  0  0  0  0
   13.0726   -4.6648   23.3394 O   0  0  0  0  0  0  0  0  0  0  0  0
    8.5955   -6.0705   17.3996 C   0  0  0  0  0  0  0  0  0  0  0  0
    4.6223   -8.3832   16.5030 C   0  0  0  0  0  0  0  0  0  0  0  0
   12.4690   -5.2624   19.9024 C   0  0  0  0  0  0  0  0  0  0  0  0
    3.2548   -9.9919   17.4189 C   0  0  0  0  0  0  0  0  0  0  0  0
   12.4767   -4.7393   22.1790 C   0  0  0  0  0  0  0  0  0  0  0  0
    7.8593   -5.3772   15.3569 N   0  0  0  0  0  0  0  0  0  0  0  0
    7.4412   -6.9038   16.9283 C   0  0  0  0  0  0  0  0  0  0  0  0
  1 21  4  0
  1 23  4  0
  2  5  1  0
  2 13  4  0
  2 16  4  0
  3  6  4  0
  3  7  4  0
  4 13  4  0
  4 19  4  0
  4 24  4  0
  6 23  4  0
  7 16  1  0
  7 21  4  0
  8 18  1  0
  9 20  4  0
  9 22  4  0
 10 17  1  0
 10 25  1  0
 11 16  4  0
 11 19  4  0
 12 15  4  0
 12 22  4  0
 14 24  4  0
 14 25  4  0
 15 17  4  0
 17 20  4  0
 18 23  1  0
 19 25  4  0
M  END
$$$$

 Created by Python create_sdf_string function

 25 28  0  0  0  0  0  0  0  0999 V2000
   13.1533   -5.2399   21.0682 C   0  0  0  0  0  0  0  0  0  0  0  0
   10.4729   -4.0295   17.6135 C   0  0  0  0  0  0  0  0  0  0  0  0
   10.4789   -4.3641   20.9564 C   0  0  0  0  0  0  0  0  0  0  0  0
    8.7421   -5.1412   16.3650 C   0  0  0  0  0  0  0  0  0  0  0  0
   11.4353   -2.9204   17.8044 C   0  0  0  0  0  0  0  0  0  0  0  0
   11.1529   -4.3028   22.1277 C   0  0  0  0  0  0  0  0  0  0  0  0
   11.1290   -4.8502   19.8052 C   0  0  0  0  0  0  0  0  0  0  0  0
   12.4329   -4.2159   24.4224 C   0  0  0  0  0  0  0  0  0  0  0  0
    3.4740   -9.0387   16.5022 C   0  0  0  0  0  0  0  0  0  0  0  0
    6.8384   -7.9290   17.5282 N   0  0  0  0  0  0  0  0  0  0  0  0
    9.4126   -5.9853   18.4899 C   0  0  0  0  0  0  0  0  0  0  0  0
    4.2064  -10.3242   18.3302 C   0  0  0  0  0  0  0  0  0  0  0  0
    9.6599   -4.1551   16.4796 N   0  0  0  0  0  0  0  0  0  0  0  0
    7.0644   -6.4612   15.7375 N   0  0  0  0  0  0  0  0  0  0  0  0
    5.3549   -9.6322   18.3190 C   0  0  0  0  0  0  0  0  0  0  0  0
   10.3704   -4.9638   18.6510 C   0  0  0  0  0  0  0  0  0  0  0  0
    5.5935   -8.6419   17.4234 C   0  0  0  0  0  0  0  0  0  0  0  0
   13.0726   -4.6648   23.3394 O   0  0  0  0  0  0  0  0  0  0  0  0
    8.5955   -6.0705   17.3996 C   0  0  0  0  0  0  0  0  0  0  0  0
    4.6223   -8.3832   16.5030 C   0  0  0  0  0  0  0  0  0  0  0  0
   12.4690   -5.2624   19.9024 C   0  0  0  0  0  0  0  0  0  0  0  0
    3.2548   -9.9919   17.4189 C   0  0  0  0  0  0  0  0  0  0  0  0
   12.4767   -4.7393   22.1790 C   0  0  0  0  0  0  0  0  0  0  0  0
    7.8593   -5.3772   15.3569 N   0  0  0  0  0  0  0  0  0  0  0  0
    7.4412   -6.9038   16.9283 C   0  0  0  0  0  0  0  0  0  0  0  0
  1 21  4  0
  1 23  4  0
  2  5  1  0
  2 13  4  0
  2 16  4  0
  3  6  4  0
  3  7  4  0
  4 13  4  0
  4 19  4  0
  4 24  4  0
  6 23  4  0
  7 16  1  0
  7 21  4  0
  8 18  1  0
  9 20  4  0
  9 22  4  0
 10 17  1  0
 10 25  1  0
 11 16  4  0
 11 19  4  0
 12 15  4  0
 12 22  4  0
 14 24  4  0
 14 25  4  0
 15 17  4  0
 17 20  4  0
 18 23  1  0
 19 25  4  0
M  END
$$$$

 Created by Python create_sdf_string function

 25 28  0  0  0  0  0  0  0  0999 V2000
   13.1533   -5.2399   21.0682 C   0  0  0  0  0  0  0  0  0  0  0  0
   10.4729   -4.0295   17.6135 C   0  0  0  0  0  0  0  0  0  0  0  0
   10.4789   -4.3641   20.9564 C   0  0  0  0  0  0  0  0  0  0  0  0
    8.7421   -5.1412   16.3650 C   0  0  0  0  0  0  0  0  0  0  0  0
   11.4353   -2.9204   17.8044 C   0  0  0  0  0  0  0  0  0  0  0  0
   11.1529   -4.3028   22.1277 C   0  0  0  0  0  0  0  0  0  0  0  0
   11.1290   -4.8502   19.8052 C   0  0  0  0  0  0  0  0  0  0  0  0
   12.4329   -4.2159   24.4224 C   0  0  0  0  0  0  0  0  0  0  0  0
    3.4740   -9.0387   16.5022 C   0  0  0  0  0  0  0  0  0  0  0  0
    6.8384   -7.9290   17.5282 N   0  0  0  0  0  0  0  0  0  0  0  0
    9.4126   -5.9853   18.4899 C   0  0  0  0  0  0  0  0  0  0  0  0
    4.2064  -10.3242   18.3302 C   0  0  0  0  0  0  0  0  0  0  0  0
    9.6599   -4.1551   16.4796 N   0  0  0  0  0  0  0  0  0  0  0  0
    7.0644   -6.4612   15.7375 N   0  0  0  0  0  0  0  0  0  0  0  0
    5.3549   -9.6322   18.3190 C   0  0  0  0  0  0  0  0  0  0  0  0
   10.3704   -4.9638   18.6510 C   0  0  0  0  0  0  0  0  0  0  0  0
    5.5935   -8.6419   17.4234 C   0  0  0  0  0  0  0  0  0  0  0  0
   13.0726   -4.6648   23.3394 O   0  0  0  0  0  0  0  0  0  0  0  0
    8.5955   -6.0705   17.3996 C   0  0  0  0  0  0  0  0  0  0  0  0
    4.6223   -8.3832   16.5030 C   0  0  0  0  0  0  0  0  0  0  0  0
   12.4690   -5.2624   19.9024 C   0  0  0  0  0  0  0  0  0  0  0  0
    3.2548   -9.9919   17.4189 C   0  0  0  0  0  0  0  0  0  0  0  0
   12.4767   -4.7393   22.1790 C   0  0  0  0  0  0  0  0  0  0  0  0
    7.8593   -5.3772   15.3569 N   0  0  0  0  0  0  0  0  0  0  0  0
    7.4412   -6.9038   16.9283 C   0  0  0  0  0  0  0  0  0  0  0  0
  1 21  4  0
  1 23  4  0
  2  5  1  0
  2 13  4  0
  2 16  4  0
  3  6  4  0
  3  7  4  0
  4 13  4  0
  4 19  4  0
  4 24  4  0
  6 23  4  0
  7 16  1  0
  7 21  4  0
  8 18  1  0
  9 20  4  0
  9 22  4  0
 10 17  1  0
 10 25  1  0
 11 16  4  0
 11 19  4  0
 12 15  4  0
 12 22  4  0
 14 24  4  0
 14 25  4  0
 15 17  4  0
 17 20  4  0
 18 23  1  0
 19 25  4  0
M  END
$$$$

 Created by Python create_sdf_string function

 25 28  0  0  0  0  0  0  0  0999 V2000
   13.1533   -5.2399   21.0682 C   0  0  0  0  0  0  0  0  0  0  0  0
   10.4729   -4.0295   17.6135 C   0  0  0  0  0  0  0  0  0  0  0  0
   10.4789   -4.3641   20.9564 C   0  0  0  0  0  0  0  0  0  0  0  0
    8.7421   -5.1412   16.3650 C   0  0  0  0  0  0  0  0  0  0  0  0
   11.4353   -2.9204   17.8044 C   0  0  0  0  0  0  0  0  0  0  0  0
   11.1529   -4.3028   22.1277 C   0  0  0  0  0  0  0  0  0  0  0  0
   11.1290   -4.8502   19.8052 C   0  0  0  0  0  0  0  0  0  0  0  0
   12.4329   -4.2159   24.4224 C   0  0  0  0  0  0  0  0  0  0  0  0
    3.4740   -9.0387   16.5022 C   0  0  0  0  0  0  0  0  0  0  0  0
    6.8384   -7.9290   17.5282 N   0  0  0  0  0  0  0  0  0  0  0  0
    9.4126   -5.9853   18.4899 C   0  0  0  0  0  0  0  0  0  0  0  0
    4.2064  -10.3242   18.3302 C   0  0  0  0  0  0  0  0  0  0  0  0
    9.6599   -4.1551   16.4796 N   0  0  0  0  0  0  0  0  0  0  0  0
    7.0644   -6.4612   15.7375 N   0  0  0  0  0  0  0  0  0  0  0  0
    5.3549   -9.6322   18.3190 C   0  0  0  0  0  0  0  0  0  0  0  0
   10.3704   -4.9638   18.6510 C   0  0  0  0  0  0  0  0  0  0  0  0
    5.5935   -8.6419   17.4234 C   0  0  0  0  0  0  0  0  0  0  0  0
   13.0726   -4.6648   23.3394 O   0  0  0  0  0  0  0  0  0  0  0  0
    8.5955   -6.0705   17.3996 C   0  0  0  0  0  0  0  0  0  0  0  0
    4.6223   -8.3832   16.5030 C   0  0  0  0  0  0  0  0  0  0  0  0
   12.4690   -5.2624   19.9024 C   0  0  0  0  0  0  0  0  0  0  0  0
    3.2548   -9.9919   17.4189 C   0  0  0  0  0  0  0  0  0  0  0  0
   12.4767   -4.7393   22.1790 C   0  0  0  0  0  0  0  0  0  0  0  0
    7.8593   -5.3772   15.3569 N   0  0  0  0  0  0  0  0  0  0  0  0
    7.4412   -6.9038   16.9283 C   0  0  0  0  0  0  0  0  0  0  0  0
  1 21  4  0
  1 23  4  0
  2  5  1  0
  2 13  4  0
  2 16  4  0
  3  6  4  0
  3  7  4  0
  4 13  4  0
  4 19  4  0
  4 24  4  0
  6 23  4  0
  7 16  1  0
  7 21  4  0
  8 18  1  0
  9 20  4  0
  9 22  4  0
 10 17  1  0
 10 25  1  0
 11 16  4  0
 11 19  4  0
 12 15  4  0
 12 22  4  0
 14 24  4  0
 14 25  4  0
 15 17  4  0
 17 20  4  0
 18 23  1  0
 19 25  4  0
M  END
$$$$

 Created by Python create_sdf_string function

 25 28  0  0  0  0  0  0  0  0999 V2000
   13.1533   -5.2399   21.0682 C   0  0  0  0  0  0  0  0  0  0  0  0
   10.4729   -4.0295   17.6135 C   0  0  0  0  0  0  0  0  0  0  0  0
   10.4789   -4.3641   20.9564 C   0  0  0  0  0  0  0  0  0  0  0  0
    8.7421   -5.1412   16.3650 C   0  0  0  0  0  0  0  0  0  0  0  0
   11.4353   -2.9204   17.8044 C   0  0  0  0  0  0  0  0  0  0  0  0
   11.1529   -4.3028   22.1277 C   0  0  0  0  0  0  0  0  0  0  0  0
   11.1290   -4.8502   19.8052 C   0  0  0  0  0  0  0  0  0  0  0  0
   12.4329   -4.2159   24.4224 C   0  0  0  0  0  0  0  0  0  0  0  0
    3.4740   -9.0387   16.5022 C   0  0  0  0  0  0  0  0  0  0  0  0
    6.8384   -7.9290   17.5282 N   0  0  0  0  0  0  0  0  0  0  0  0
    9.4126   -5.9853   18.4899 C   0  0  0  0  0  0  0  0  0  0  0  0
    4.2064  -10.3242   18.3302 C   0  0  0  0  0  0  0  0  0  0  0  0
    9.6599   -4.1551   16.4796 N   0  0  0  0  0  0  0  0  0  0  0  0
    7.0644   -6.4612   15.7375 N   0  0  0  0  0  0  0  0  0  0  0  0
    5.3549   -9.6322   18.3190 C   0  0  0  0  0  0  0  0  0  0  0  0
   10.3704   -4.9638   18.6510 C   0  0  0  0  0  0  0  0  0  0  0  0
    5.5935   -8.6419   17.4234 C   0  0  0  0  0  0  0  0  0  0  0  0
   13.0726   -4.6648   23.3394 O   0  0  0  0  0  0  0  0  0  0  0  0
    8.5955   -6.0705   17.3996 C   0  0  0  0  0  0  0  0  0  0  0  0
    4.6223   -8.3832   16.5030 C   0  0  0  0  0  0  0  0  0  0  0  0
   12.4690   -5.2624   19.9024 C   0  0  0  0  0  0  0  0  0  0  0  0
    3.2548   -9.9919   17.4189 C   0  0  0  0  0  0  0  0  0  0  0  0
   12.4767   -4.7393   22.1790 C   0  0  0  0  0  0  0  0  0  0  0  0
    7.8593   -5.3772   15.3569 N   0  0  0  0  0  0  0  0  0  0  0  0
    7.4412   -6.9038   16.9283 C   0  0  0  0  0  0  0  0  0  0  0  0
  1 21  4  0
  1 23  4  0
  2  5  1  0
  2 13  4  0
  2 16  4  0
  3  6  4  0
  3  7  4  0
  4 13  4  0
  4 19  4  0
  4 24  4  0
  6 23  4  0
  7 16  1  0
  7 21  4  0
  8 18  1  0
  9 20  4  0
  9 22  4  0
 10 17  1  0
 10 25  1  0
 11 16  4  0
 11 19  4  0
 12 15  4  0
 12 22  4  0
 14 24  4  0
 14 25  4  0
 15 17  4  0
 17 20  4  0
 18 23  1  0
 19 25  4  0
M  END
$$$$

 Created by Python create_sdf_string function

 25 28  0  0  0  0  0  0  0  0999 V2000
   13.1533   -5.2399   21.0682 C   0  0  0  0  0  0  0  0  0  0  0  0
   10.4729   -4.0295   17.6135 C   0  0  0  0  0  0  0  0  0  0  0  0
   10.4789   -4.3641   20.9564 C   0  0  0  0  0  0  0  0  0  0  0  0
    8.7421   -5.1412   16.3650 C   0  0  0  0  0  0  0  0  0  0  0  0
   11.4353   -2.9204   17.8044 C   0  0  0  0  0  0  0  0  0  0  0  0
   11.1529   -4.3028   22.1277 C   0  0  0  0  0  0  0  0  0  0  0  0
   11.1290   -4.8502   19.8052 C   0  0  0  0  0  0  0  0  0  0  0  0
   12.4329   -4.2159   24.4224 C   0  0  0  0  0  0  0  0  0  0  0  0
    3.4740   -9.0387   16.5022 C   0  0  0  0  0  0  0  0  0  0  0  0
    6.8384   -7.9290   17.5282 N   0  0  0  0  0  0  0  0  0  0  0  0
    9.4126   -5.9853   18.4899 C   0  0  0  0  0  0  0  0  0  0  0  0
    4.2064  -10.3242   18.3302 C   0  0  0  0  0  0  0  0  0  0  0  0
    9.6599   -4.1551   16.4796 N   0  0  0  0  0  0  0  0  0  0  0  0
    7.0644   -6.4612   15.7375 N   0  0  0  0  0  0  0  0  0  0  0  0
    5.3549   -9.6322   18.3190 C   0  0  0  0  0  0  0  0  0  0  0  0
   10.3704   -4.9638   18.6510 C   0  0  0  0  0  0  0  0  0  0  0  0
    5.5935   -8.6419   17.4234 C   0  0  0  0  0  0  0  0  0  0  0  0
   13.0726   -4.6648   23.3394 O   0  0  0  0  0  0  0  0  0  0  0  0
    8.5955   -6.0705   17.3996 C   0  0  0  0  0  0  0  0  0  0  0  0
    4.6223   -8.3832   16.5030 C   0  0  0  0  0  0  0  0  0  0  0  0
   12.4690   -5.2624   19.9024 C   0  0  0  0  0  0  0  0  0  0  0  0
    3.2548   -9.9919   17.4189 C   0  0  0  0  0  0  0  0  0  0  0  0
   12.4767   -4.7393   22.1790 C   0  0  0  0  0  0  0  0  0  0  0  0
    7.8593   -5.3772   15.3569 N   0  0  0  0  0  0  0  0  0  0  0  0
    7.4412   -6.9038   16.9283 C   0  0  0  0  0  0  0  0  0  0  0  0
  1 21  4  0
  1 23  4  0
  2  5  1  0
  2 13  4  0
  2 16  4  0
  3  6  4  0
  3  7  4  0
  4 13  4  0
  4 19  4  0
  4 24  4  0
  6 23  4  0
  7 16  1  0
  7 21  4  0
  8 18  1  0
  9 20  4  0
  9 22  4  0
 10 17  1  0
 10 25  1  0
 11 16  4  0
 11 19  4  0
 12 15  4  0
 12 22  4  0
 14 24  4  0
 14 25  4  0
 15 17  4  0
 17 20  4  0
 18 23  1  0
 19 25  4  0
M  END
$$$$

 Created by Python create_sdf_string function

 25 28  0  0  0  0  0  0  0  0999 V2000
   13.1533   -5.2399   21.0682 C   0  0  0  0  0  0  0  0  0  0  0  0
   10.4729   -4.0295   17.6135 C   0  0  0  0  0  0  0  0  0  0  0  0
   10.4789   -4.3641   20.9564 C   0  0  0  0  0  0  0  0  0  0  0  0
    8.7421   -5.1412   16.3650 C   0  0  0  0  0  0  0  0  0  0  0  0
   11.4353   -2.9204   17.8044 C   0  0  0  0  0  0  0  0  0  0  0  0
   11.1529   -4.3028   22.1277 C   0  0  0  0  0  0  0  0  0  0  0  0
   11.1290   -4.8502   19.8052 C   0  0  0  0  0  0  0  0  0  0  0  0
   12.4329   -4.2159   24.4224 C   0  0  0  0  0  0  0  0  0  0  0  0
    3.4740   -9.0387   16.5022 C   0  0  0  0  0  0  0  0  0  0  0  0
    6.8384   -7.9290   17.5282 N   0  0  0  0  0  0  0  0  0  0  0  0
    9.4126   -5.9853   18.4899 C   0  0  0  0  0  0  0  0  0  0  0  0
    4.2064  -10.3242   18.3302 C   0  0  0  0  0  0  0  0  0  0  0  0
    9.6599   -4.1551   16.4796 N   0  0  0  0  0  0  0  0  0  0  0  0
    7.0644   -6.4612   15.7375 N   0  0  0  0  0  0  0  0  0  0  0  0
    5.3549   -9.6322   18.3190 C   0  0  0  0  0  0  0  0  0  0  0  0
   10.3704   -4.9638   18.6510 C   0  0  0  0  0  0  0  0  0  0  0  0
    5.5935   -8.6419   17.4234 C   0  0  0  0  0  0  0  0  0  0  0  0
   13.0726   -4.6648   23.3394 O   0  0  0  0  0  0  0  0  0  0  0  0
    8.5955   -6.0705   17.3996 C   0  0  0  0  0  0  0  0  0  0  0  0
    4.6223   -8.3832   16.5030 C   0  0  0  0  0  0  0  0  0  0  0  0
   12.4690   -5.2624   19.9024 C   0  0  0  0  0  0  0  0  0  0  0  0
    3.2548   -9.9919   17.4189 C   0  0  0  0  0  0  0  0  0  0  0  0
   12.4767   -4.7393   22.1790 C   0  0  0  0  0  0  0  0  0  0  0  0
    7.8593   -5.3772   15.3569 N   0  0  0  0  0  0  0  0  0  0  0  0
    7.4412   -6.9038   16.9283 C   0  0  0  0  0  0  0  0  0  0  0  0
  1 21  4  0
  1 23  4  0
  2  5  1  0
  2 13  4  0
  2 16  4  0
  3  6  4  0
  3  7  4  0
  4 13  4  0
  4 19  4  0
  4 24  4  0
  6 23  4  0
  7 16  1  0
  7 21  4  0
  8 18  1  0
  9 20  4  0
  9 22  4  0
 10 17  1  0
 10 25  1  0
 11 16  4  0
 11 19  4  0
 12 15  4  0
 12 22  4  0
 14 24  4  0
 14 25  4  0
 15 17  4  0
 17 20  4  0
 18 23  1  0
 19 25  4  0
M  END
$$$$

 Created by Python create_sdf_string function

 25 28  0  0  0  0  0  0  0  0999 V2000
   13.1533   -5.2399   21.0682 C   0  0  0  0  0  0  0  0  0  0  0  0
   10.4729   -4.0295   17.6135 C   0  0  0  0  0  0  0  0  0  0  0  0
   10.4789   -4.3641   20.9564 C   0  0  0  0  0  0  0  0  0  0  0  0
    8.7421   -5.1412   16.3650 C   0  0  0  0  0  0  0  0  0  0  0  0
   11.4353   -2.9204   17.8044 C   0  0  0  0  0  0  0  0  0  0  0  0
   11.1529   -4.3028   22.1277 C   0  0  0  0  0  0  0  0  0  0  0  0
   11.1290   -4.8502   19.8052 C   0  0  0  0  0  0  0  0  0  0  0  0
   12.4329   -4.2159   24.4224 C   0  0  0  0  0  0  0  0  0  0  0  0
    3.4740   -9.0387   16.5022 C   0  0  0  0  0  0  0  0  0  0  0  0
    6.8384   -7.9290   17.5282 N   0  0  0  0  0  0  0  0  0  0  0  0
    9.4126   -5.9853   18.4899 C   0  0  0  0  0  0  0  0  0  0  0  0
    4.2064  -10.3242   18.3302 C   0  0  0  0  0  0  0  0  0  0  0  0
    9.6599   -4.1551   16.4796 N   0  0  0  0  0  0  0  0  0  0  0  0
    7.0644   -6.4612   15.7375 N   0  0  0  0  0  0  0  0  0  0  0  0
    5.3549   -9.6322   18.3190 C   0  0  0  0  0  0  0  0  0  0  0  0
   10.3704   -4.9638   18.6510 C   0  0  0  0  0  0  0  0  0  0  0  0
    5.5935   -8.6419   17.4234 C   0  0  0  0  0  0  0  0  0  0  0  0
   13.0726   -4.6648   23.3394 O   0  0  0  0  0  0  0  0  0  0  0  0
    8.5955   -6.0705   17.3996 C   0  0  0  0  0  0  0  0  0  0  0  0
    4.6223   -8.3832   16.5030 C   0  0  0  0  0  0  0  0  0  0  0  0
   12.4690   -5.2624   19.9024 C   0  0  0  0  0  0  0  0  0  0  0  0
    3.2548   -9.9919   17.4189 C   0  0  0  0  0  0  0  0  0  0  0  0
   12.4767   -4.7393   22.1790 C   0  0  0  0  0  0  0  0  0  0  0  0
    7.8593   -5.3772   15.3569 N   0  0  0  0  0  0  0  0  0  0  0  0
    7.4412   -6.9038   16.9283 C   0  0  0  0  0  0  0  0  0  0  0  0
  1 21  4  0
  1 23  4  0
  2  5  1  0
  2 13  4  0
  2 16  4  0
  3  6  4  0
  3  7  4  0
  4 13  4  0
  4 19  4  0
  4 24  4  0
  6 23  4  0
  7 16  1  0
  7 21  4  0
  8 18  1  0
  9 20  4  0
  9 22  4  0
 10 17  1  0
 10 25  1  0
 11 16  4  0
 11 19  4  0
 12 15  4  0
 12 22  4  0
 14 24  4  0
 14 25  4  0
 15 17  4  0
 17 20  4  0
 18 23  1  0
 19 25  4  0
M  END
$$$$

 Created by Python create_sdf_string function

 25 28  0  0  0  0  0  0  0  0999 V2000
   13.1533   -5.2399   21.0682 C   0  0  0  0  0  0  0  0  0  0  0  0
   10.4729   -4.0295   17.6135 C   0  0  0  0  0  0  0  0  0  0  0  0
   10.4789   -4.3641   20.9564 C   0  0  0  0  0  0  0  0  0  0  0  0
    8.7421   -5.1412   16.3650 C   0  0  0  0  0  0  0  0  0  0  0  0
   11.4353   -2.9204   17.8044 C   0  0  0  0  0  0  0  0  0  0  0  0
   11.1529   -4.3028   22.1277 C   0  0  0  0  0  0  0  0  0  0  0  0
   11.1290   -4.8502   19.8052 C   0  0  0  0  0  0  0  0  0  0  0  0
   12.4329   -4.2159   24.4224 C   0  0  0  0  0  0  0  0  0  0  0  0
    3.4740   -9.0387   16.5022 C   0  0  0  0  0  0  0  0  0  0  0  0
    6.8384   -7.9290   17.5282 N   0  0  0  0  0  0  0  0  0  0  0  0
    9.4126   -5.9853   18.4899 C   0  0  0  0  0  0  0  0  0  0  0  0
    4.2064  -10.3242   18.3302 C   0  0  0  0  0  0  0  0  0  0  0  0
    9.6599   -4.1551   16.4796 N   0  0  0  0  0  0  0  0  0  0  0  0
    7.0644   -6.4612   15.7375 N   0  0  0  0  0  0  0  0  0  0  0  0
    5.3549   -9.6322   18.3190 C   0  0  0  0  0  0  0  0  0  0  0  0
   10.3704   -4.9638   18.6510 C   0  0  0  0  0  0  0  0  0  0  0  0
    5.5935   -8.6419   17.4234 C   0  0  0  0  0  0  0  0  0  0  0  0
   13.0726   -4.6648   23.3394 O   0  0  0  0  0  0  0  0  0  0  0  0
    8.5955   -6.0705   17.3996 C   0  0  0  0  0  0  0  0  0  0  0  0
    4.6223   -8.3832   16.5030 C   0  0  0  0  0  0  0  0  0  0  0  0
   12.4690   -5.2624   19.9024 C   0  0  0  0  0  0  0  0  0  0  0  0
    3.2548   -9.9919   17.4189 C   0  0  0  0  0  0  0  0  0  0  0  0
   12.4767   -4.7393   22.1790 C   0  0  0  0  0  0  0  0  0  0  0  0
    7.8593   -5.3772   15.3569 N   0  0  0  0  0  0  0  0  0  0  0  0
    7.4412   -6.9038   16.9283 C   0  0  0  0  0  0  0  0  0  0  0  0
  1 21  4  0
  1 23  4  0
  2  5  1  0
  2 13  4  0
  2 16  4  0
  3  6  4  0
  3  7  4  0
  4 13  4  0
  4 19  4  0
  4 24  4  0
  6 23  4  0
  7 16  1  0
  7 21  4  0
  8 18  1  0
  9 20  4  0
  9 22  4  0
 10 17  1  0
 10 25  1  0
 11 16  4  0
 11 19  4  0
 12 15  4  0
 12 22  4  0
 14 24  4  0
 14 25  4  0
 15 17  4  0
 17 20  4  0
 18 23  1  0
 19 25  4  0
M  END
$$$$

 Created by Python create_sdf_string function

 25 28  0  0  0  0  0  0  0  0999 V2000
   13.1533   -5.2399   21.0682 C   0  0  0  0  0  0  0  0  0  0  0  0
   10.4729   -4.0295   17.6135 C   0  0  0  0  0  0  0  0  0  0  0  0
   10.4789   -4.3641   20.9564 C   0  0  0  0  0  0  0  0  0  0  0  0
    8.7421   -5.1412   16.3650 C   0  0  0  0  0  0  0  0  0  0  0  0
   11.4353   -2.9204   17.8044 C   0  0  0  0  0  0  0  0  0  0  0  0
   11.1529   -4.3028   22.1277 C   0  0  0  0  0  0  0  0  0  0  0  0
   11.1290   -4.8502   19.8052 C   0  0  0  0  0  0  0  0  0  0  0  0
   12.4329   -4.2159   24.4224 C   0  0  0  0  0  0  0  0  0  0  0  0
    3.4740   -9.0387   16.5022 C   0  0  0  0  0  0  0  0  0  0  0  0
    6.8384   -7.9290   17.5282 N   0  0  0  0  0  0  0  0  0  0  0  0
    9.4126   -5.9853   18.4899 C   0  0  0  0  0  0  0  0  0  0  0  0
    4.2064  -10.3242   18.3302 C   0  0  0  0  0  0  0  0  0  0  0  0
    9.6599   -4.1551   16.4796 N   0  0  0  0  0  0  0  0  0  0  0  0
    7.0644   -6.4612   15.7375 N   0  0  0  0  0  0  0  0  0  0  0  0
    5.3549   -9.6322   18.3190 C   0  0  0  0  0  0  0  0  0  0  0  0
   10.3704   -4.9638   18.6510 C   0  0  0  0  0  0  0  0  0  0  0  0
    5.5935   -8.6419   17.4234 C   0  0  0  0  0  0  0  0  0  0  0  0
   13.0726   -4.6648   23.3394 O   0  0  0  0  0  0  0  0  0  0  0  0
    8.5955   -6.0705   17.3996 C   0  0  0  0  0  0  0  0  0  0  0  0
    4.6223   -8.3832   16.5030 C   0  0  0  0  0  0  0  0  0  0  0  0
   12.4690   -5.2624   19.9024 C   0  0  0  0  0  0  0  0  0  0  0  0
    3.2548   -9.9919   17.4189 C   0  0  0  0  0  0  0  0  0  0  0  0
   12.4767   -4.7393   22.1790 C   0  0  0  0  0  0  0  0  0  0  0  0
    7.8593   -5.3772   15.3569 N   0  0  0  0  0  0  0  0  0  0  0  0
    7.4412   -6.9038   16.9283 C   0  0  0  0  0  0  0  0  0  0  0  0
  1 21  4  0
  1 23  4  0
  2  5  1  0
  2 13  4  0
  2 16  4  0
  3  6  4  0
  3  7  4  0
  4 13  4  0
  4 19  4  0
  4 24  4  0
  6 23  4  0
  7 16  1  0
  7 21  4  0
  8 18  1  0
  9 20  4  0
  9 22  4  0
 10 17  1  0
 10 25  1  0
 11 16  4  0
 11 19  4  0
 12 15  4  0
 12 22  4  0
 14 24  4  0
 14 25  4  0
 15 17  4  0
 17 20  4  0
 18 23  1  0
 19 25  4  0
M  END
$$$$

 Created by Python create_sdf_string function

 25 28  0  0  0  0  0  0  0  0999 V2000
   13.1533   -5.2399   21.0682 C   0  0  0  0  0  0  0  0  0  0  0  0
   10.4729   -4.0295   17.6135 C   0  0  0  0  0  0  0  0  0  0  0  0
   10.4789   -4.3641   20.9564 C   0  0  0  0  0  0  0  0  0  0  0  0
    8.7421   -5.1412   16.3650 C   0  0  0  0  0  0  0  0  0  0  0  0
   11.4353   -2.9204   17.8044 C   0  0  0  0  0  0  0  0  0  0  0  0
   11.1529   -4.3028   22.1277 C   0  0  0  0  0  0  0  0  0  0  0  0
   11.1290   -4.8502   19.8052 C   0  0  0  0  0  0  0  0  0  0  0  0
   12.4329   -4.2159   24.4224 C   0  0  0  0  0  0  0  0  0  0  0  0
    3.4740   -9.0387   16.5022 C   0  0  0  0  0  0  0  0  0  0  0  0
    6.8384   -7.9290   17.5282 N   0  0  0  0  0  0  0  0  0  0  0  0
    9.4126   -5.9853   18.4899 C   0  0  0  0  0  0  0  0  0  0  0  0
    4.2064  -10.3242   18.3302 C   0  0  0  0  0  0  0  0  0  0  0  0
    9.6599   -4.1551   16.4796 N   0  0  0  0  0  0  0  0  0  0  0  0
    7.0644   -6.4612   15.7375 N   0  0  0  0  0  0  0  0  0  0  0  0
    5.3549   -9.6322   18.3190 C   0  0  0  0  0  0  0  0  0  0  0  0
   10.3704   -4.9638   18.6510 C   0  0  0  0  0  0  0  0  0  0  0  0
    5.5935   -8.6419   17.4234 C   0  0  0  0  0  0  0  0  0  0  0  0
   13.0726   -4.6648   23.3394 O   0  0  0  0  0  0  0  0  0  0  0  0
    8.5955   -6.0705   17.3996 C   0  0  0  0  0  0  0  0  0  0  0  0
    4.6223   -8.3832   16.5030 C   0  0  0  0  0  0  0  0  0  0  0  0
   12.4690   -5.2624   19.9024 C   0  0  0  0  0  0  0  0  0  0  0  0
    3.2548   -9.9919   17.4189 C   0  0  0  0  0  0  0  0  0  0  0  0
   12.4767   -4.7393   22.1790 C   0  0  0  0  0  0  0  0  0  0  0  0
    7.8593   -5.3772   15.3569 N   0  0  0  0  0  0  0  0  0  0  0  0
    7.4412   -6.9038   16.9283 C   0  0  0  0  0  0  0  0  0  0  0  0
  1 21  4  0
  1 23  4  0
  2  5  1  0
  2 13  4  0
  2 16  4  0
  3  6  4  0
  3  7  4  0
  4 13  4  0
  4 19  4  0
  4 24  4  0
  6 23  4  0
  7 16  1  0
  7 21  4  0
  8 18  1  0
  9 20  4  0
  9 22  4  0
 10 17  1  0
 10 25  1  0
 11 16  4  0
 11 19  4  0
 12 15  4  0
 12 22  4  0
 14 24  4  0
 14 25  4  0
 15 17  4  0
 17 20  4  0
 18 23  1  0
 19 25  4  0
M  END
$$$$

 Created by Python create_sdf_string function

 25 28  0  0  0  0  0  0  0  0999 V2000
   13.1533   -5.2399   21.0682 C   0  0  0  0  0  0  0  0  0  0  0  0
   10.4729   -4.0295   17.6135 C   0  0  0  0  0  0  0  0  0  0  0  0
   10.4789   -4.3641   20.9564 C   0  0  0  0  0  0  0  0  0  0  0  0
    8.7421   -5.1412   16.3650 C   0  0  0  0  0  0  0  0  0  0  0  0
   11.4353   -2.9204   17.8044 C   0  0  0  0  0  0  0  0  0  0  0  0
   11.1529   -4.3028   22.1277 C   0  0  0  0  0  0  0  0  0  0  0  0
   11.1290   -4.8502   19.8052 C   0  0  0  0  0  0  0  0  0  0  0  0
   12.4329   -4.2159   24.4224 C   0  0  0  0  0  0  0  0  0  0  0  0
    3.4740   -9.0387   16.5022 C   0  0  0  0  0  0  0  0  0  0  0  0
    6.8384   -7.9290   17.5282 N   0  0  0  0  0  0  0  0  0  0  0  0
    9.4126   -5.9853   18.4899 C   0  0  0  0  0  0  0  0  0  0  0  0
    4.2064  -10.3242   18.3302 C   0  0  0  0  0  0  0  0  0  0  0  0
    9.6599   -4.1551   16.4796 N   0  0  0  0  0  0  0  0  0  0  0  0
    7.0644   -6.4612   15.7375 N   0  0  0  0  0  0  0  0  0  0  0  0
    5.3549   -9.6322   18.3190 C   0  0  0  0  0  0  0  0  0  0  0  0
   10.3704   -4.9638   18.6510 C   0  0  0  0  0  0  0  0  0  0  0  0
    5.5935   -8.6419   17.4234 C   0  0  0  0  0  0  0  0  0  0  0  0
   13.0726   -4.6648   23.3394 O   0  0  0  0  0  0  0  0  0  0  0  0
    8.5955   -6.0705   17.3996 C   0  0  0  0  0  0  0  0  0  0  0  0
    4.6223   -8.3832   16.5030 C   0  0  0  0  0  0  0  0  0  0  0  0
   12.4690   -5.2624   19.9024 C   0  0  0  0  0  0  0  0  0  0  0  0
    3.2548   -9.9919   17.4189 C   0  0  0  0  0  0  0  0  0  0  0  0
   12.4767   -4.7393   22.1790 C   0  0  0  0  0  0  0  0  0  0  0  0
    7.8593   -5.3772   15.3569 N   0  0  0  0  0  0  0  0  0  0  0  0
    7.4412   -6.9038   16.9283 C   0  0  0  0  0  0  0  0  0  0  0  0
  1 21  4  0
  1 23  4  0
  2  5  1  0
  2 13  4  0
  2 16  4  0
  3  6  4  0
  3  7  4  0
  4 13  4  0
  4 19  4  0
  4 24  4  0
  6 23  4  0
  7 16  1  0
  7 21  4  0
  8 18  1  0
  9 20  4  0
  9 22  4  0
 10 17  1  0
 10 25  1  0
 11 16  4  0
 11 19  4  0
 12 15  4  0
 12 22  4  0
 14 24  4  0
 14 25  4  0
 15 17  4  0
 17 20  4  0
 18 23  1  0
 19 25  4  0
M  END
$$$$

 Created by Python create_sdf_string function

 25 28  0  0  0  0  0  0  0  0999 V2000
   13.1533   -5.2399   21.0682 C   0  0  0  0  0  0  0  0  0  0  0  0
   10.4729   -4.0295   17.6135 C   0  0  0  0  0  0  0  0  0  0  0  0
   10.4789   -4.3641   20.9564 C   0  0  0  0  0  0  0  0  0  0  0  0
    8.7421   -5.1412   16.3650 C   0  0  0  0  0  0  0  0  0  0  0  0
   11.4353   -2.9204   17.8044 C   0  0  0  0  0  0  0  0  0  0  0  0
   11.1529   -4.3028   22.1277 C   0  0  0  0  0  0  0  0  0  0  0  0
   11.1290   -4.8502   19.8052 C   0  0  0  0  0  0  0  0  0  0  0  0
   12.4329   -4.2159   24.4224 C   0  0  0  0  0  0  0  0  0  0  0  0
    3.4740   -9.0387   16.5022 C   0  0  0  0  0  0  0  0  0  0  0  0
    6.8384   -7.9290   17.5282 N   0  0  0  0  0  0  0  0  0  0  0  0
    9.4126   -5.9853   18.4899 C   0  0  0  0  0  0  0  0  0  0  0  0
    4.2064  -10.3242   18.3302 C   0  0  0  0  0  0  0  0  0  0  0  0
    9.6599   -4.1551   16.4796 N   0  0  0  0  0  0  0  0  0  0  0  0
    7.0644   -6.4612   15.7375 N   0  0  0  0  0  0  0  0  0  0  0  0
    5.3549   -9.6322   18.3190 C   0  0  0  0  0  0  0  0  0  0  0  0
   10.3704   -4.9638   18.6510 C   0  0  0  0  0  0  0  0  0  0  0  0
    5.5935   -8.6419   17.4234 C   0  0  0  0  0  0  0  0  0  0  0  0
   13.0726   -4.6648   23.3394 O   0  0  0  0  0  0  0  0  0  0  0  0
    8.5955   -6.0705   17.3996 C   0  0  0  0  0  0  0  0  0  0  0  0
    4.6223   -8.3832   16.5030 C   0  0  0  0  0  0  0  0  0  0  0  0
   12.4690   -5.2624   19.9024 C   0  0  0  0  0  0  0  0  0  0  0  0
    3.2548   -9.9919   17.4189 C   0  0  0  0  0  0  0  0  0  0  0  0
   12.4767   -4.7393   22.1790 C   0  0  0  0  0  0  0  0  0  0  0  0
    7.8593   -5.3772   15.3569 N   0  0  0  0  0  0  0  0  0  0  0  0
    7.4412   -6.9038   16.9283 C   0  0  0  0  0  0  0  0  0  0  0  0
  1 21  4  0
  1 23  4  0
  2  5  1  0
  2 13  4  0
  2 16  4  0
  3  6  4  0
  3  7  4  0
  4 13  4  0
  4 19  4  0
  4 24  4  0
  6 23  4  0
  7 16  1  0
  7 21  4  0
  8 18  1  0
  9 20  4  0
  9 22  4  0
 10 17  1  0
 10 25  1  0
 11 16  4  0
 11 19  4  0
 12 15  4  0
 12 22  4  0
 14 24  4  0
 14 25  4  0
 15 17  4  0
 17 20  4  0
 18 23  1  0
 19 25  4  0
M  END
$$$$

 Created by Python create_sdf_string function

 25 28  0  0  0  0  0  0  0  0999 V2000
   13.1533   -5.2399   21.0682 C   0  0  0  0  0  0  0  0  0  0  0  0
   10.4729   -4.0295   17.6135 C   0  0  0  0  0  0  0  0  0  0  0  0
   10.4789   -4.3641   20.9564 C   0  0  0  0  0  0  0  0  0  0  0  0
    8.7421   -5.1412   16.3650 C   0  0  0  0  0  0  0  0  0  0  0  0
   11.4353   -2.9204   17.8044 C   0  0  0  0  0  0  0  0  0  0  0  0
   11.1529   -4.3028   22.1277 C   0  0  0  0  0  0  0  0  0  0  0  0
   11.1290   -4.8502   19.8052 C   0  0  0  0  0  0  0  0  0  0  0  0
   12.4329   -4.2159   24.4224 C   0  0  0  0  0  0  0  0  0  0  0  0
    3.4740   -9.0387   16.5022 C   0  0  0  0  0  0  0  0  0  0  0  0
    6.8384   -7.9290   17.5282 N   0  0  0  0  0  0  0  0  0  0  0  0
    9.4126   -5.9853   18.4899 C   0  0  0  0  0  0  0  0  0  0  0  0
    4.2064  -10.3242   18.3302 C   0  0  0  0  0  0  0  0  0  0  0  0
    9.6599   -4.1551   16.4796 N   0  0  0  0  0  0  0  0  0  0  0  0
    7.0644   -6.4612   15.7375 N   0  0  0  0  0  0  0  0  0  0  0  0
    5.3549   -9.6322   18.3190 C   0  0  0  0  0  0  0  0  0  0  0  0
   10.3704   -4.9638   18.6510 C   0  0  0  0  0  0  0  0  0  0  0  0
    5.5935   -8.6419   17.4234 C   0  0  0  0  0  0  0  0  0  0  0  0
   13.0726   -4.6648   23.3394 O   0  0  0  0  0  0  0  0  0  0  0  0
    8.5955   -6.0705   17.3996 C   0  0  0  0  0  0  0  0  0  0  0  0
    4.6223   -8.3832   16.5030 C   0  0  0  0  0  0  0  0  0  0  0  0
   12.4690   -5.2624   19.9024 C   0  0  0  0  0  0  0  0  0  0  0  0
    3.2548   -9.9919   17.4189 C   0  0  0  0  0  0  0  0  0  0  0  0
   12.4767   -4.7393   22.1790 C   0  0  0  0  0  0  0  0  0  0  0  0
    7.8593   -5.3772   15.3569 N   0  0  0  0  0  0  0  0  0  0  0  0
    7.4412   -6.9038   16.9283 C   0  0  0  0  0  0  0  0  0  0  0  0
  1 21  4  0
  1 23  4  0
  2  5  1  0
  2 13  4  0
  2 16  4  0
  3  6  4  0
  3  7  4  0
  4 13  4  0
  4 19  4  0
  4 24  4  0
  6 23  4  0
  7 16  1  0
  7 21  4  0
  8 18  1  0
  9 20  4  0
  9 22  4  0
 10 17  1  0
 10 25  1  0
 11 16  4  0
 11 19  4  0
 12 15  4  0
 12 22  4  0
 14 24  4  0
 14 25  4  0
 15 17  4  0
 17 20  4  0
 18 23  1  0
 19 25  4  0
M  END
$$$$

 Created by Python create_sdf_string function

 25 28  0  0  0  0  0  0  0  0999 V2000
   13.1533   -5.2399   21.0682 C   0  0  0  0  0  0  0  0  0  0  0  0
   10.4729   -4.0295   17.6135 C   0  0  0  0  0  0  0  0  0  0  0  0
   10.4789   -4.3641   20.9564 C   0  0  0  0  0  0  0  0  0  0  0  0
    8.7421   -5.1412   16.3650 C   0  0  0  0  0  0  0  0  0  0  0  0
   11.4353   -2.9204   17.8044 C   0  0  0  0  0  0  0  0  0  0  0  0
   11.1529   -4.3028   22.1277 C   0  0  0  0  0  0  0  0  0  0  0  0
   11.1290   -4.8502   19.8052 C   0  0  0  0  0  0  0  0  0  0  0  0
   12.4329   -4.2159   24.4224 C   0  0  0  0  0  0  0  0  0  0  0  0
    3.4740   -9.0387   16.5022 C   0  0  0  0  0  0  0  0  0  0  0  0
    6.8384   -7.9290   17.5282 N   0  0  0  0  0  0  0  0  0  0  0  0
    9.4126   -5.9853   18.4899 C   0  0  0  0  0  0  0  0  0  0  0  0
    4.2064  -10.3242   18.3302 C   0  0  0  0  0  0  0  0  0  0  0  0
    9.6599   -4.1551   16.4796 N   0  0  0  0  0  0  0  0  0  0  0  0
    7.0644   -6.4612   15.7375 N   0  0  0  0  0  0  0  0  0  0  0  0
    5.3549   -9.6322   18.3190 C   0  0  0  0  0  0  0  0  0  0  0  0
   10.3704   -4.9638   18.6510 C   0  0  0  0  0  0  0  0  0  0  0  0
    5.5935   -8.6419   17.4234 C   0  0  0  0  0  0  0  0  0  0  0  0
   13.0726   -4.6648   23.3394 O   0  0  0  0  0  0  0  0  0  0  0  0
    8.5955   -6.0705   17.3996 C   0  0  0  0  0  0  0  0  0  0  0  0
    4.6223   -8.3832   16.5030 C   0  0  0  0  0  0  0  0  0  0  0  0
   12.4690   -5.2624   19.9024 C   0  0  0  0  0  0  0  0  0  0  0  0
    3.2548   -9.9919   17.4189 C   0  0  0  0  0  0  0  0  0  0  0  0
   12.4767   -4.7393   22.1790 C   0  0  0  0  0  0  0  0  0  0  0  0
    7.8593   -5.3772   15.3569 N   0  0  0  0  0  0  0  0  0  0  0  0
    7.4412   -6.9038   16.9283 C   0  0  0  0  0  0  0  0  0  0  0  0
  1 21  4  0
  1 23  4  0
  2  5  1  0
  2 13  4  0
  2 16  4  0
  3  6  4  0
  3  7  4  0
  4 13  4  0
  4 19  4  0
  4 24  4  0
  6 23  4  0
  7 16  1  0
  7 21  4  0
  8 18  1  0
  9 20  4  0
  9 22  4  0
 10 17  1  0
 10 25  1  0
 11 16  4  0
 11 19  4  0
 12 15  4  0
 12 22  4  0
 14 24  4  0
 14 25  4  0
 15 17  4  0
 17 20  4  0
 18 23  1  0
 19 25  4  0
M  END
$$$$

 Created by Python create_sdf_string function

 25 28  0  0  0  0  0  0  0  0999 V2000
   13.1533   -5.2399   21.0682 C   0  0  0  0  0  0  0  0  0  0  0  0
   10.4729   -4.0295   17.6135 C   0  0  0  0  0  0  0  0  0  0  0  0
   10.4789   -4.3641   20.9564 C   0  0  0  0  0  0  0  0  0  0  0  0
    8.7421   -5.1412   16.3650 C   0  0  0  0  0  0  0  0  0  0  0  0
   11.4353   -2.9204   17.8044 C   0  0  0  0  0  0  0  0  0  0  0  0
   11.1529   -4.3028   22.1277 C   0  0  0  0  0  0  0  0  0  0  0  0
   11.1290   -4.8502   19.8052 C   0  0  0  0  0  0  0  0  0  0  0  0
   12.4329   -4.2159   24.4224 C   0  0  0  0  0  0  0  0  0  0  0  0
    3.4740   -9.0387   16.5022 C   0  0  0  0  0  0  0  0  0  0  0  0
    6.8384   -7.9290   17.5282 N   0  0  0  0  0  0  0  0  0  0  0  0
    9.4126   -5.9853   18.4899 C   0  0  0  0  0  0  0  0  0  0  0  0
    4.2064  -10.3242   18.3302 C   0  0  0  0  0  0  0  0  0  0  0  0
    9.6599   -4.1551   16.4796 N   0  0  0  0  0  0  0  0  0  0  0  0
    7.0644   -6.4612   15.7375 N   0  0  0  0  0  0  0  0  0  0  0  0
    5.3549   -9.6322   18.3190 C   0  0  0  0  0  0  0  0  0  0  0  0
   10.3704   -4.9638   18.6510 C   0  0  0  0  0  0  0  0  0  0  0  0
    5.5935   -8.6419   17.4234 C   0  0  0  0  0  0  0  0  0  0  0  0
   13.0726   -4.6648   23.3394 O   0  0  0  0  0  0  0  0  0  0  0  0
    8.5955   -6.0705   17.3996 C   0  0  0  0  0  0  0  0  0  0  0  0
    4.6223   -8.3832   16.5030 C   0  0  0  0  0  0  0  0  0  0  0  0
   12.4690   -5.2624   19.9024 C   0  0  0  0  0  0  0  0  0  0  0  0
    3.2548   -9.9919   17.4189 C   0  0  0  0  0  0  0  0  0  0  0  0
   12.4767   -4.7393   22.1790 C   0  0  0  0  0  0  0  0  0  0  0  0
    7.8593   -5.3772   15.3569 N   0  0  0  0  0  0  0  0  0  0  0  0
    7.4412   -6.9038   16.9283 C   0  0  0  0  0  0  0  0  0  0  0  0
  1 21  4  0
  1 23  4  0
  2  5  1  0
  2 13  4  0
  2 16  4  0
  3  6  4  0
  3  7  4  0
  4 13  4  0
  4 19  4  0
  4 24  4  0
  6 23  4  0
  7 16  1  0
  7 21  4  0
  8 18  1  0
  9 20  4  0
  9 22  4  0
 10 17  1  0
 10 25  1  0
 11 16  4  0
 11 19  4  0
 12 15  4  0
 12 22  4  0
 14 24  4  0
 14 25  4  0
 15 17  4  0
 17 20  4  0
 18 23  1  0
 19 25  4  0
M  END
$$$$

 Created by Python create_sdf_string function

 25 28  0  0  0  0  0  0  0  0999 V2000
   13.1533   -5.2399   21.0682 C   0  0  0  0  0  0  0  0  0  0  0  0
   10.4729   -4.0295   17.6135 C   0  0  0  0  0  0  0  0  0  0  0  0
   10.4789   -4.3641   20.9564 C   0  0  0  0  0  0  0  0  0  0  0  0
    8.7421   -5.1412   16.3650 C   0  0  0  0  0  0  0  0  0  0  0  0
   11.4353   -2.9204   17.8044 C   0  0  0  0  0  0  0  0  0  0  0  0
   11.1529   -4.3028   22.1277 C   0  0  0  0  0  0  0  0  0  0  0  0
   11.1290   -4.8502   19.8052 C   0  0  0  0  0  0  0  0  0  0  0  0
   12.4329   -4.2159   24.4224 C   0  0  0  0  0  0  0  0  0  0  0  0
    3.4740   -9.0387   16.5022 C   0  0  0  0  0  0  0  0  0  0  0  0
    6.8384   -7.9290   17.5282 N   0  0  0  0  0  0  0  0  0  0  0  0
    9.4126   -5.9853   18.4899 C   0  0  0  0  0  0  0  0  0  0  0  0
    4.2064  -10.3242   18.3302 C   0  0  0  0  0  0  0  0  0  0  0  0
    9.6599   -4.1551   16.4796 N   0  0  0  0  0  0  0  0  0  0  0  0
    7.0644   -6.4612   15.7375 N   0  0  0  0  0  0  0  0  0  0  0  0
    5.3549   -9.6322   18.3190 C   0  0  0  0  0  0  0  0  0  0  0  0
   10.3704   -4.9638   18.6510 C   0  0  0  0  0  0  0  0  0  0  0  0
    5.5935   -8.6419   17.4234 C   0  0  0  0  0  0  0  0  0  0  0  0
   13.0726   -4.6648   23.3394 O   0  0  0  0  0  0  0  0  0  0  0  0
    8.5955   -6.0705   17.3996 C   0  0  0  0  0  0  0  0  0  0  0  0
    4.6223   -8.3832   16.5030 C   0  0  0  0  0  0  0  0  0  0  0  0
   12.4690   -5.2624   19.9024 C   0  0  0  0  0  0  0  0  0  0  0  0
    3.2548   -9.9919   17.4189 C   0  0  0  0  0  0  0  0  0  0  0  0
   12.4767   -4.7393   22.1790 C   0  0  0  0  0  0  0  0  0  0  0  0
    7.8593   -5.3772   15.3569 N   0  0  0  0  0  0  0  0  0  0  0  0
    7.4412   -6.9038   16.9283 C   0  0  0  0  0  0  0  0  0  0  0  0
  1 21  4  0
  1 23  4  0
  2  5  1  0
  2 13  4  0
  2 16  4  0
  3  6  4  0
  3  7  4  0
  4 13  4  0
  4 19  4  0
  4 24  4  0
  6 23  4  0
  7 16  1  0
  7 21  4  0
  8 18  1  0
  9 20  4  0
  9 22  4  0
 10 17  1  0
 10 25  1  0
 11 16  4  0
 11 19  4  0
 12 15  4  0
 12 22  4  0
 14 24  4  0
 14 25  4  0
 15 17  4  0
 17 20  4  0
 18 23  1  0
 19 25  4  0
M  END
$$$$

 Created by Python create_sdf_string function

 25 28  0  0  0  0  0  0  0  0999 V2000
   13.1533   -5.2399   21.0682 C   0  0  0  0  0  0  0  0  0  0  0  0
   10.4729   -4.0295   17.6135 C   0  0  0  0  0  0  0  0  0  0  0  0
   10.4789   -4.3641   20.9564 C   0  0  0  0  0  0  0  0  0  0  0  0
    8.7421   -5.1412   16.3650 C   0  0  0  0  0  0  0  0  0  0  0  0
   11.4353   -2.9204   17.8044 C   0  0  0  0  0  0  0  0  0  0  0  0
   11.1529   -4.3028   22.1277 C   0  0  0  0  0  0  0  0  0  0  0  0
   11.1290   -4.8502   19.8052 C   0  0  0  0  0  0  0  0  0  0  0  0
   12.4329   -4.2159   24.4224 C   0  0  0  0  0  0  0  0  0  0  0  0
    3.4740   -9.0387   16.5022 C   0  0  0  0  0  0  0  0  0  0  0  0
    6.8384   -7.9290   17.5282 N   0  0  0  0  0  0  0  0  0  0  0  0
    9.4126   -5.9853   18.4899 C   0  0  0  0  0  0  0  0  0  0  0  0
    4.2064  -10.3242   18.3302 C   0  0  0  0  0  0  0  0  0  0  0  0
    9.6599   -4.1551   16.4796 N   0  0  0  0  0  0  0  0  0  0  0  0
    7.0644   -6.4612   15.7375 N   0  0  0  0  0  0  0  0  0  0  0  0
    5.3549   -9.6322   18.3190 C   0  0  0  0  0  0  0  0  0  0  0  0
   10.3704   -4.9638   18.6510 C   0  0  0  0  0  0  0  0  0  0  0  0
    5.5935   -8.6419   17.4234 C   0  0  0  0  0  0  0  0  0  0  0  0
   13.0726   -4.6648   23.3394 O   0  0  0  0  0  0  0  0  0  0  0  0
    8.5955   -6.0705   17.3996 C   0  0  0  0  0  0  0  0  0  0  0  0
    4.6223   -8.3832   16.5030 C   0  0  0  0  0  0  0  0  0  0  0  0
   12.4690   -5.2624   19.9024 C   0  0  0  0  0  0  0  0  0  0  0  0
    3.2548   -9.9919   17.4189 C   0  0  0  0  0  0  0  0  0  0  0  0
   12.4767   -4.7393   22.1790 C   0  0  0  0  0  0  0  0  0  0  0  0
    7.8593   -5.3772   15.3569 N   0  0  0  0  0  0  0  0  0  0  0  0
    7.4412   -6.9038   16.9283 C   0  0  0  0  0  0  0  0  0  0  0  0
  1 21  4  0
  1 23  4  0
  2  5  1  0
  2 13  4  0
  2 16  4  0
  3  6  4  0
  3  7  4  0
  4 13  4  0
  4 19  4  0
  4 24  4  0
  6 23  4  0
  7 16  1  0
  7 21  4  0
  8 18  1  0
  9 20  4  0
  9 22  4  0
 10 17  1  0
 10 25  1  0
 11 16  4  0
 11 19  4  0
 12 15  4  0
 12 22  4  0
 14 24  4  0
 14 25  4  0
 15 17  4  0
 17 20  4  0
 18 23  1  0
 19 25  4  0
M  END
$$$$

 Created by Python create_sdf_string function

 25 28  0  0  0  0  0  0  0  0999 V2000
   13.1533   -5.2399   21.0682 C   0  0  0  0  0  0  0  0  0  0  0  0
   10.4729   -4.0295   17.6135 C   0  0  0  0  0  0  0  0  0  0  0  0
   10.4789   -4.3641   20.9564 C   0  0  0  0  0  0  0  0  0  0  0  0
    8.7421   -5.1412   16.3650 C   0  0  0  0  0  0  0  0  0  0  0  0
   11.4353   -2.9204   17.8044 C   0  0  0  0  0  0  0  0  0  0  0  0
   11.1529   -4.3028   22.1277 C   0  0  0  0  0  0  0  0  0  0  0  0
   11.1290   -4.8502   19.8052 C   0  0  0  0  0  0  0  0  0  0  0  0
   12.4329   -4.2159   24.4224 C   0  0  0  0  0  0  0  0  0  0  0  0
    3.4740   -9.0387   16.5022 C   0  0  0  0  0  0  0  0  0  0  0  0
    6.8384   -7.9290   17.5282 N   0  0  0  0  0  0  0  0  0  0  0  0
    9.4126   -5.9853   18.4899 C   0  0  0  0  0  0  0  0  0  0  0  0
    4.2064  -10.3242   18.3302 C   0  0  0  0  0  0  0  0  0  0  0  0
    9.6599   -4.1551   16.4796 N   0  0  0  0  0  0  0  0  0  0  0  0
    7.0644   -6.4612   15.7375 N   0  0  0  0  0  0  0  0  0  0  0  0
    5.3549   -9.6322   18.3190 C   0  0  0  0  0  0  0  0  0  0  0  0
   10.3704   -4.9638   18.6510 C   0  0  0  0  0  0  0  0  0  0  0  0
    5.5935   -8.6419   17.4234 C   0  0  0  0  0  0  0  0  0  0  0  0
   13.0726   -4.6648   23.3394 O   0  0  0  0  0  0  0  0  0  0  0  0
    8.5955   -6.0705   17.3996 C   0  0  0  0  0  0  0  0  0  0  0  0
    4.6223   -8.3832   16.5030 C   0  0  0  0  0  0  0  0  0  0  0  0
   12.4690   -5.2624   19.9024 C   0  0  0  0  0  0  0  0  0  0  0  0
    3.2548   -9.9919   17.4189 C   0  0  0  0  0  0  0  0  0  0  0  0
   12.4767   -4.7393   22.1790 C   0  0  0  0  0  0  0  0  0  0  0  0
    7.8593   -5.3772   15.3569 N   0  0  0  0  0  0  0  0  0  0  0  0
    7.4412   -6.9038   16.9283 C   0  0  0  0  0  0  0  0  0  0  0  0
  1 21  4  0
  1 23  4  0
  2  5  1  0
  2 13  4  0
  2 16  4  0
  3  6  4  0
  3  7  4  0
  4 13  4  0
  4 19  4  0
  4 24  4  0
  6 23  4  0
  7 16  1  0
  7 21  4  0
  8 18  1  0
  9 20  4  0
  9 22  4  0
 10 17  1  0
 10 25  1  0
 11 16  4  0
 11 19  4  0
 12 15  4  0
 12 22  4  0
 14 24  4  0
 14 25  4  0
 15 17  4  0
 17 20  4  0
 18 23  1  0
 19 25  4  0
M  END
$$$$

 Created by Python create_sdf_string function

 25 28  0  0  0  0  0  0  0  0999 V2000
   13.1533   -5.2399   21.0682 C   0  0  0  0  0  0  0  0  0  0  0  0
   10.4729   -4.0295   17.6135 C   0  0  0  0  0  0  0  0  0  0  0  0
   10.4789   -4.3641   20.9564 C   0  0  0  0  0  0  0  0  0  0  0  0
    8.7421   -5.1412   16.3650 C   0  0  0  0  0  0  0  0  0  0  0  0
   11.4353   -2.9204   17.8044 C   0  0  0  0  0  0  0  0  0  0  0  0
   11.1529   -4.3028   22.1277 C   0  0  0  0  0  0  0  0  0  0  0  0
   11.1290   -4.8502   19.8052 C   0  0  0  0  0  0  0  0  0  0  0  0
   12.4329   -4.2159   24.4224 C   0  0  0  0  0  0  0  0  0  0  0  0
    3.4740   -9.0387   16.5022 C   0  0  0  0  0  0  0  0  0  0  0  0
    6.8384   -7.9290   17.5282 N   0  0  0  0  0  0  0  0  0  0  0  0
    9.4126   -5.9853   18.4899 C   0  0  0  0  0  0  0  0  0  0  0  0
    4.2064  -10.3242   18.3302 C   0  0  0  0  0  0  0  0  0  0  0  0
    9.6599   -4.1551   16.4796 N   0  0  0  0  0  0  0  0  0  0  0  0
    7.0644   -6.4612   15.7375 N   0  0  0  0  0  0  0  0  0  0  0  0
    5.3549   -9.6322   18.3190 C   0  0  0  0  0  0  0  0  0  0  0  0
   10.3704   -4.9638   18.6510 C   0  0  0  0  0  0  0  0  0  0  0  0
    5.5935   -8.6419   17.4234 C   0  0  0  0  0  0  0  0  0  0  0  0
   13.0726   -4.6648   23.3394 O   0  0  0  0  0  0  0  0  0  0  0  0
    8.5955   -6.0705   17.3996 C   0  0  0  0  0  0  0  0  0  0  0  0
    4.6223   -8.3832   16.5030 C   0  0  0  0  0  0  0  0  0  0  0  0
   12.4690   -5.2624   19.9024 C   0  0  0  0  0  0  0  0  0  0  0  0
    3.2548   -9.9919   17.4189 C   0  0  0  0  0  0  0  0  0  0  0  0
   12.4767   -4.7393   22.1790 C   0  0  0  0  0  0  0  0  0  0  0  0
    7.8593   -5.3772   15.3569 N   0  0  0  0  0  0  0  0  0  0  0  0
    7.4412   -6.9038   16.9283 C   0  0  0  0  0  0  0  0  0  0  0  0
  1 21  4  0
  1 23  4  0
  2  5  1  0
  2 13  4  0
  2 16  4  0
  3  6  4  0
  3  7  4  0
  4 13  4  0
  4 19  4  0
  4 24  4  0
  6 23  4  0
  7 16  1  0
  7 21  4  0
  8 18  1  0
  9 20  4  0
  9 22  4  0
 10 17  1  0
 10 25  1  0
 11 16  4  0
 11 19  4  0
 12 15  4  0
 12 22  4  0
 14 24  4  0
 14 25  4  0
 15 17  4  0
 17 20  4  0
 18 23  1  0
 19 25  4  0
M  END
$$$$

 Created by Python create_sdf_string function

 25 28  0  0  0  0  0  0  0  0999 V2000
   13.1533   -5.2399   21.0682 C   0  0  0  0  0  0  0  0  0  0  0  0
   10.4729   -4.0295   17.6135 C   0  0  0  0  0  0  0  0  0  0  0  0
   10.4789   -4.3641   20.9564 C   0  0  0  0  0  0  0  0  0  0  0  0
    8.7421   -5.1412   16.3650 C   0  0  0  0  0  0  0  0  0  0  0  0
   11.4353   -2.9204   17.8044 C   0  0  0  0  0  0  0  0  0  0  0  0
   11.1529   -4.3028   22.1277 C   0  0  0  0  0  0  0  0  0  0  0  0
   11.1290   -4.8502   19.8052 C   0  0  0  0  0  0  0  0  0  0  0  0
   12.4329   -4.2159   24.4224 C   0  0  0  0  0  0  0  0  0  0  0  0
    3.4740   -9.0387   16.5022 C   0  0  0  0  0  0  0  0  0  0  0  0
    6.8384   -7.9290   17.5282 N   0  0  0  0  0  0  0  0  0  0  0  0
    9.4126   -5.9853   18.4899 C   0  0  0  0  0  0  0  0  0  0  0  0
    4.2064  -10.3242   18.3302 C   0  0  0  0  0  0  0  0  0  0  0  0
    9.6599   -4.1551   16.4796 N   0  0  0  0  0  0  0  0  0  0  0  0
    7.0644   -6.4612   15.7375 N   0  0  0  0  0  0  0  0  0  0  0  0
    5.3549   -9.6322   18.3190 C   0  0  0  0  0  0  0  0  0  0  0  0
   10.3704   -4.9638   18.6510 C   0  0  0  0  0  0  0  0  0  0  0  0
    5.5935   -8.6419   17.4234 C   0  0  0  0  0  0  0  0  0  0  0  0
   13.0726   -4.6648   23.3394 O   0  0  0  0  0  0  0  0  0  0  0  0
    8.5955   -6.0705   17.3996 C   0  0  0  0  0  0  0  0  0  0  0  0
    4.6223   -8.3832   16.5030 C   0  0  0  0  0  0  0  0  0  0  0  0
   12.4690   -5.2624   19.9024 C   0  0  0  0  0  0  0  0  0  0  0  0
    3.2548   -9.9919   17.4189 C   0  0  0  0  0  0  0  0  0  0  0  0
   12.4767   -4.7393   22.1790 C   0  0  0  0  0  0  0  0  0  0  0  0
    7.8593   -5.3772   15.3569 N   0  0  0  0  0  0  0  0  0  0  0  0
    7.4412   -6.9038   16.9283 C   0  0  0  0  0  0  0  0  0  0  0  0
  1 21  4  0
  1 23  4  0
  2  5  1  0
  2 13  4  0
  2 16  4  0
  3  6  4  0
  3  7  4  0
  4 13  4  0
  4 19  4  0
  4 24  4  0
  6 23  4  0
  7 16  1  0
  7 21  4  0
  8 18  1  0
  9 20  4  0
  9 22  4  0
 10 17  1  0
 10 25  1  0
 11 16  4  0
 11 19  4  0
 12 15  4  0
 12 22  4  0
 14 24  4  0
 14 25  4  0
 15 17  4  0
 17 20  4  0
 18 23  1  0
 19 25  4  0
M  END
$$$$

 Created by Python create_sdf_string function

 25 28  0  0  0  0  0  0  0  0999 V2000
   13.1533   -5.2399   21.0682 C   0  0  0  0  0  0  0  0  0  0  0  0
   10.4729   -4.0295   17.6135 C   0  0  0  0  0  0  0  0  0  0  0  0
   10.4789   -4.3641   20.9564 C   0  0  0  0  0  0  0  0  0  0  0  0
    8.7421   -5.1412   16.3650 C   0  0  0  0  0  0  0  0  0  0  0  0
   11.4353   -2.9204   17.8044 C   0  0  0  0  0  0  0  0  0  0  0  0
   11.1529   -4.3028   22.1277 C   0  0  0  0  0  0  0  0  0  0  0  0
   11.1290   -4.8502   19.8052 C   0  0  0  0  0  0  0  0  0  0  0  0
   12.4329   -4.2159   24.4224 C   0  0  0  0  0  0  0  0  0  0  0  0
    3.4740   -9.0387   16.5022 C   0  0  0  0  0  0  0  0  0  0  0  0
    6.8384   -7.9290   17.5282 N   0  0  0  0  0  0  0  0  0  0  0  0
    9.4126   -5.9853   18.4899 C   0  0  0  0  0  0  0  0  0  0  0  0
    4.2064  -10.3242   18.3302 C   0  0  0  0  0  0  0  0  0  0  0  0
    9.6599   -4.1551   16.4796 N   0  0  0  0  0  0  0  0  0  0  0  0
    7.0644   -6.4612   15.7375 N   0  0  0  0  0  0  0  0  0  0  0  0
    5.3549   -9.6322   18.3190 C   0  0  0  0  0  0  0  0  0  0  0  0
   10.3704   -4.9638   18.6510 C   0  0  0  0  0  0  0  0  0  0  0  0
    5.5935   -8.6419   17.4234 C   0  0  0  0  0  0  0  0  0  0  0  0
   13.0726   -4.6648   23.3394 O   0  0  0  0  0  0  0  0  0  0  0  0
    8.5955   -6.0705   17.3996 C   0  0  0  0  0  0  0  0  0  0  0  0
    4.6223   -8.3832   16.5030 C   0  0  0  0  0  0  0  0  0  0  0  0
   12.4690   -5.2624   19.9024 C   0  0  0  0  0  0  0  0  0  0  0  0
    3.2548   -9.9919   17.4189 C   0  0  0  0  0  0  0  0  0  0  0  0
   12.4767   -4.7393   22.1790 C   0  0  0  0  0  0  0  0  0  0  0  0
    7.8593   -5.3772   15.3569 N   0  0  0  0  0  0  0  0  0  0  0  0
    7.4412   -6.9038   16.9283 C   0  0  0  0  0  0  0  0  0  0  0  0
  1 21  4  0
  1 23  4  0
  2  5  1  0
  2 13  4  0
  2 16  4  0
  3  6  4  0
  3  7  4  0
  4 13  4  0
  4 19  4  0
  4 24  4  0
  6 23  4  0
  7 16  1  0
  7 21  4  0
  8 18  1  0
  9 20  4  0
  9 22  4  0
 10 17  1  0
 10 25  1  0
 11 16  4  0
 11 19  4  0
 12 15  4  0
 12 22  4  0
 14 24  4  0
 14 25  4  0
 15 17  4  0
 17 20  4  0
 18 23  1  0
 19 25  4  0
M  END
$$$$

 Created by Python create_sdf_string function

 25 28  0  0  0  0  0  0  0  0999 V2000
   13.1533   -5.2399   21.0682 C   0  0  0  0  0  0  0  0  0  0  0  0
   10.4729   -4.0295   17.6135 C   0  0  0  0  0  0  0  0  0  0  0  0
   10.4789   -4.3641   20.9564 C   0  0  0  0  0  0  0  0  0  0  0  0
    8.7421   -5.1412   16.3650 C   0  0  0  0  0  0  0  0  0  0  0  0
   11.4353   -2.9204   17.8044 C   0  0  0  0  0  0  0  0  0  0  0  0
   11.1529   -4.3028   22.1277 C   0  0  0  0  0  0  0  0  0  0  0  0
   11.1290   -4.8502   19.8052 C   0  0  0  0  0  0  0  0  0  0  0  0
   12.4329   -4.2159   24.4224 C   0  0  0  0  0  0  0  0  0  0  0  0
    3.4740   -9.0387   16.5022 C   0  0  0  0  0  0  0  0  0  0  0  0
    6.8384   -7.9290   17.5282 N   0  0  0  0  0  0  0  0  0  0  0  0
    9.4126   -5.9853   18.4899 C   0  0  0  0  0  0  0  0  0  0  0  0
    4.2064  -10.3242   18.3302 C   0  0  0  0  0  0  0  0  0  0  0  0
    9.6599   -4.1551   16.4796 N   0  0  0  0  0  0  0  0  0  0  0  0
    7.0644   -6.4612   15.7375 N   0  0  0  0  0  0  0  0  0  0  0  0
    5.3549   -9.6322   18.3190 C   0  0  0  0  0  0  0  0  0  0  0  0
   10.3704   -4.9638   18.6510 C   0  0  0  0  0  0  0  0  0  0  0  0
    5.5935   -8.6419   17.4234 C   0  0  0  0  0  0  0  0  0  0  0  0
   13.0726   -4.6648   23.3394 O   0  0  0  0  0  0  0  0  0  0  0  0
    8.5955   -6.0705   17.3996 C   0  0  0  0  0  0  0  0  0  0  0  0
    4.6223   -8.3832   16.5030 C   0  0  0  0  0  0  0  0  0  0  0  0
   12.4690   -5.2624   19.9024 C   0  0  0  0  0  0  0  0  0  0  0  0
    3.2548   -9.9919   17.4189 C   0  0  0  0  0  0  0  0  0  0  0  0
   12.4767   -4.7393   22.1790 C   0  0  0  0  0  0  0  0  0  0  0  0
    7.8593   -5.3772   15.3569 N   0  0  0  0  0  0  0  0  0  0  0  0
    7.4412   -6.9038   16.9283 C   0  0  0  0  0  0  0  0  0  0  0  0
  1 21  4  0
  1 23  4  0
  2  5  1  0
  2 13  4  0
  2 16  4  0
  3  6  4  0
  3  7  4  0
  4 13  4  0
  4 19  4  0
  4 24  4  0
  6 23  4  0
  7 16  1  0
  7 21  4  0
  8 18  1  0
  9 20  4  0
  9 22  4  0
 10 17  1  0
 10 25  1  0
 11 16  4  0
 11 19  4  0
 12 15  4  0
 12 22  4  0
 14 24  4  0
 14 25  4  0
 15 17  4  0
 17 20  4  0
 18 23  1  0
 19 25  4  0
M  END
$$$$

 Created by Python create_sdf_string function

 25 28  0  0  0  0  0  0  0  0999 V2000
   13.1533   -5.2399   21.0682 C   0  0  0  0  0  0  0  0  0  0  0  0
   10.4729   -4.0295   17.6135 C   0  0  0  0  0  0  0  0  0  0  0  0
   10.4789   -4.3641   20.9564 C   0  0  0  0  0  0  0  0  0  0  0  0
    8.7421   -5.1412   16.3650 C   0  0  0  0  0  0  0  0  0  0  0  0
   11.4353   -2.9204   17.8044 C   0  0  0  0  0  0  0  0  0  0  0  0
   11.1529   -4.3028   22.1277 C   0  0  0  0  0  0  0  0  0  0  0  0
   11.1290   -4.8502   19.8052 C   0  0  0  0  0  0  0  0  0  0  0  0
   12.4329   -4.2159   24.4224 C   0  0  0  0  0  0  0  0  0  0  0  0
    3.4740   -9.0387   16.5022 C   0  0  0  0  0  0  0  0  0  0  0  0
    6.8384   -7.9290   17.5282 N   0  0  0  0  0  0  0  0  0  0  0  0
    9.4126   -5.9853   18.4899 C   0  0  0  0  0  0  0  0  0  0  0  0
    4.2064  -10.3242   18.3302 C   0  0  0  0  0  0  0  0  0  0  0  0
    9.6599   -4.1551   16.4796 N   0  0  0  0  0  0  0  0  0  0  0  0
    7.0644   -6.4612   15.7375 N   0  0  0  0  0  0  0  0  0  0  0  0
    5.3549   -9.6322   18.3190 C   0  0  0  0  0  0  0  0  0  0  0  0
   10.3704   -4.9638   18.6510 C   0  0  0  0  0  0  0  0  0  0  0  0
    5.5935   -8.6419   17.4234 C   0  0  0  0  0  0  0  0  0  0  0  0
   13.0726   -4.6648   23.3394 O   0  0  0  0  0  0  0  0  0  0  0  0
    8.5955   -6.0705   17.3996 C   0  0  0  0  0  0  0  0  0  0  0  0
    4.6223   -8.3832   16.5030 C   0  0  0  0  0  0  0  0  0  0  0  0
   12.4690   -5.2624   19.9024 C   0  0  0  0  0  0  0  0  0  0  0  0
    3.2548   -9.9919   17.4189 C   0  0  0  0  0  0  0  0  0  0  0  0
   12.4767   -4.7393   22.1790 C   0  0  0  0  0  0  0  0  0  0  0  0
    7.8593   -5.3772   15.3569 N   0  0  0  0  0  0  0  0  0  0  0  0
    7.4412   -6.9038   16.9283 C   0  0  0  0  0  0  0  0  0  0  0  0
  1 21  4  0
  1 23  4  0
  2  5  1  0
  2 13  4  0
  2 16  4  0
  3  6  4  0
  3  7  4  0
  4 13  4  0
  4 19  4  0
  4 24  4  0
  6 23  4  0
  7 16  1  0
  7 21  4  0
  8 18  1  0
  9 20  4  0
  9 22  4  0
 10 17  1  0
 10 25  1  0
 11 16  4  0
 11 19  4  0
 12 15  4  0
 12 22  4  0
 14 24  4  0
 14 25  4  0
 15 17  4  0
 17 20  4  0
 18 23  1  0
 19 25  4  0
M  END
$$$$

 Created by Python create_sdf_string function

 25 28  0  0  0  0  0  0  0  0999 V2000
   13.1533   -5.2399   21.0682 C   0  0  0  0  0  0  0  0  0  0  0  0
   10.4729   -4.0295   17.6135 C   0  0  0  0  0  0  0  0  0  0  0  0
   10.4789   -4.3641   20.9564 C   0  0  0  0  0  0  0  0  0  0  0  0
    8.7421   -5.1412   16.3650 C   0  0  0  0  0  0  0  0  0  0  0  0
   11.4353   -2.9204   17.8044 C   0  0  0  0  0  0  0  0  0  0  0  0
   11.1529   -4.3028   22.1277 C   0  0  0  0  0  0  0  0  0  0  0  0
   11.1290   -4.8502   19.8052 C   0  0  0  0  0  0  0  0  0  0  0  0
   12.4329   -4.2159   24.4224 C   0  0  0  0  0  0  0  0  0  0  0  0
    3.4740   -9.0387   16.5022 C   0  0  0  0  0  0  0  0  0  0  0  0
    6.8384   -7.9290   17.5282 N   0  0  0  0  0  0  0  0  0  0  0  0
    9.4126   -5.9853   18.4899 C   0  0  0  0  0  0  0  0  0  0  0  0
    4.2064  -10.3242   18.3302 C   0  0  0  0  0  0  0  0  0  0  0  0
    9.6599   -4.1551   16.4796 N   0  0  0  0  0  0  0  0  0  0  0  0
    7.0644   -6.4612   15.7375 N   0  0  0  0  0  0  0  0  0  0  0  0
    5.3549   -9.6322   18.3190 C   0  0  0  0  0  0  0  0  0  0  0  0
   10.3704   -4.9638   18.6510 C   0  0  0  0  0  0  0  0  0  0  0  0
    5.5935   -8.6419   17.4234 C   0  0  0  0  0  0  0  0  0  0  0  0
   13.0726   -4.6648   23.3394 O   0  0  0  0  0  0  0  0  0  0  0  0
    8.5955   -6.0705   17.3996 C   0  0  0  0  0  0  0  0  0  0  0  0
    4.6223   -8.3832   16.5030 C   0  0  0  0  0  0  0  0  0  0  0  0
   12.4690   -5.2624   19.9024 C   0  0  0  0  0  0  0  0  0  0  0  0
    3.2548   -9.9919   17.4189 C   0  0  0  0  0  0  0  0  0  0  0  0
   12.4767   -4.7393   22.1790 C   0  0  0  0  0  0  0  0  0  0  0  0
    7.8593   -5.3772   15.3569 N   0  0  0  0  0  0  0  0  0  0  0  0
    7.4412   -6.9038   16.9283 C   0  0  0  0  0  0  0  0  0  0  0  0
  1 21  4  0
  1 23  4  0
  2  5  1  0
  2 13  4  0
  2 16  4  0
  3  6  4  0
  3  7  4  0
  4 13  4  0
  4 19  4  0
  4 24  4  0
  6 23  4  0
  7 16  1  0
  7 21  4  0
  8 18  1  0
  9 20  4  0
  9 22  4  0
 10 17  1  0
 10 25  1  0
 11 16  4  0
 11 19  4  0
 12 15  4  0
 12 22  4  0
 14 24  4  0
 14 25  4  0
 15 17  4  0
 17 20  4  0
 18 23  1  0
 19 25  4  0
M  END
$$$$

 Created by Python create_sdf_string function

 25 28  0  0  0  0  0  0  0  0999 V2000
   13.1533   -5.2399   21.0682 C   0  0  0  0  0  0  0  0  0  0  0  0
   10.4729   -4.0295   17.6135 C   0  0  0  0  0  0  0  0  0  0  0  0
   10.4789   -4.3641   20.9564 C   0  0  0  0  0  0  0  0  0  0  0  0
    8.7421   -5.1412   16.3650 C   0  0  0  0  0  0  0  0  0  0  0  0
   11.4353   -2.9204   17.8044 C   0  0  0  0  0  0  0  0  0  0  0  0
   11.1529   -4.3028   22.1277 C   0  0  0  0  0  0  0  0  0  0  0  0
   11.1290   -4.8502   19.8052 C   0  0  0  0  0  0  0  0  0  0  0  0
   12.4329   -4.2159   24.4224 C   0  0  0  0  0  0  0  0  0  0  0  0
    3.4740   -9.0387   16.5022 C   0  0  0  0  0  0  0  0  0  0  0  0
    6.8384   -7.9290   17.5282 N   0  0  0  0  0  0  0  0  0  0  0  0
    9.4126   -5.9853   18.4899 C   0  0  0  0  0  0  0  0  0  0  0  0
    4.2064  -10.3242   18.3302 C   0  0  0  0  0  0  0  0  0  0  0  0
    9.6599   -4.1551   16.4796 N   0  0  0  0  0  0  0  0  0  0  0  0
    7.0644   -6.4612   15.7375 N   0  0  0  0  0  0  0  0  0  0  0  0
    5.3549   -9.6322   18.3190 C   0  0  0  0  0  0  0  0  0  0  0  0
   10.3704   -4.9638   18.6510 C   0  0  0  0  0  0  0  0  0  0  0  0
    5.5935   -8.6419   17.4234 C   0  0  0  0  0  0  0  0  0  0  0  0
   13.0726   -4.6648   23.3394 O   0  0  0  0  0  0  0  0  0  0  0  0
    8.5955   -6.0705   17.3996 C   0  0  0  0  0  0  0  0  0  0  0  0
    4.6223   -8.3832   16.5030 C   0  0  0  0  0  0  0  0  0  0  0  0
   12.4690   -5.2624   19.9024 C   0  0  0  0  0  0  0  0  0  0  0  0
    3.2548   -9.9919   17.4189 C   0  0  0  0  0  0  0  0  0  0  0  0
   12.4767   -4.7393   22.1790 C   0  0  0  0  0  0  0  0  0  0  0  0
    7.8593   -5.3772   15.3569 N   0  0  0  0  0  0  0  0  0  0  0  0
    7.4412   -6.9038   16.9283 C   0  0  0  0  0  0  0  0  0  0  0  0
  1 21  4  0
  1 23  4  0
  2  5  1  0
  2 13  4  0
  2 16  4  0
  3  6  4  0
  3  7  4  0
  4 13  4  0
  4 19  4  0
  4 24  4  0
  6 23  4  0
  7 16  1  0
  7 21  4  0
  8 18  1  0
  9 20  4  0
  9 22  4  0
 10 17  1  0
 10 25  1  0
 11 16  4  0
 11 19  4  0
 12 15  4  0
 12 22  4  0
 14 24  4  0
 14 25  4  0
 15 17  4  0
 17 20  4  0
 18 23  1  0
 19 25  4  0
M  END
$$$$

 Created by Python create_sdf_string function

 25 28  0  0  0  0  0  0  0  0999 V2000
   13.1533   -5.2399   21.0682 C   0  0  0  0  0  0  0  0  0  0  0  0
   10.4729   -4.0295   17.6135 C   0  0  0  0  0  0  0  0  0  0  0  0
   10.4789   -4.3641   20.9564 C   0  0  0  0  0  0  0  0  0  0  0  0
    8.7421   -5.1412   16.3650 C   0  0  0  0  0  0  0  0  0  0  0  0
   11.4353   -2.9204   17.8044 C   0  0  0  0  0  0  0  0  0  0  0  0
   11.1529   -4.3028   22.1277 C   0  0  0  0  0  0  0  0  0  0  0  0
   11.1290   -4.8502   19.8052 C   0  0  0  0  0  0  0  0  0  0  0  0
   12.4329   -4.2159   24.4224 C   0  0  0  0  0  0  0  0  0  0  0  0
    3.4740   -9.0387   16.5022 C   0  0  0  0  0  0  0  0  0  0  0  0
    6.8384   -7.9290   17.5282 N   0  0  0  0  0  0  0  0  0  0  0  0
    9.4126   -5.9853   18.4899 C   0  0  0  0  0  0  0  0  0  0  0  0
    4.2064  -10.3242   18.3302 C   0  0  0  0  0  0  0  0  0  0  0  0
    9.6599   -4.1551   16.4796 N   0  0  0  0  0  0  0  0  0  0  0  0
    7.0644   -6.4612   15.7375 N   0  0  0  0  0  0  0  0  0  0  0  0
    5.3549   -9.6322   18.3190 C   0  0  0  0  0  0  0  0  0  0  0  0
   10.3704   -4.9638   18.6510 C   0  0  0  0  0  0  0  0  0  0  0  0
    5.5935   -8.6419   17.4234 C   0  0  0  0  0  0  0  0  0  0  0  0
   13.0726   -4.6648   23.3394 O   0  0  0  0  0  0  0  0  0  0  0  0
    8.5955   -6.0705   17.3996 C   0  0  0  0  0  0  0  0  0  0  0  0
    4.6223   -8.3832   16.5030 C   0  0  0  0  0  0  0  0  0  0  0  0
   12.4690   -5.2624   19.9024 C   0  0  0  0  0  0  0  0  0  0  0  0
    3.2548   -9.9919   17.4189 C   0  0  0  0  0  0  0  0  0  0  0  0
   12.4767   -4.7393   22.1790 C   0  0  0  0  0  0  0  0  0  0  0  0
    7.8593   -5.3772   15.3569 N   0  0  0  0  0  0  0  0  0  0  0  0
    7.4412   -6.9038   16.9283 C   0  0  0  0  0  0  0  0  0  0  0  0
  1 21  4  0
  1 23  4  0
  2  5  1  0
  2 13  4  0
  2 16  4  0
  3  6  4  0
  3  7  4  0
  4 13  4  0
  4 19  4  0
  4 24  4  0
  6 23  4  0
  7 16  1  0
  7 21  4  0
  8 18  1  0
  9 20  4  0
  9 22  4  0
 10 17  1  0
 10 25  1  0
 11 16  4  0
 11 19  4  0
 12 15  4  0
 12 22  4  0
 14 24  4  0
 14 25  4  0
 15 17  4  0
 17 20  4  0
 18 23  1  0
 19 25  4  0
M  END
$$$$

 Created by Python create_sdf_string function

 25 28  0  0  0  0  0  0  0  0999 V2000
   13.1533   -5.2399   21.0682 C   0  0  0  0  0  0  0  0  0  0  0  0
   10.4729   -4.0295   17.6135 C   0  0  0  0  0  0  0  0  0  0  0  0
   10.4789   -4.3641   20.9564 C   0  0  0  0  0  0  0  0  0  0  0  0
    8.7421   -5.1412   16.3650 C   0  0  0  0  0  0  0  0  0  0  0  0
   11.4353   -2.9204   17.8044 C   0  0  0  0  0  0  0  0  0  0  0  0
   11.1529   -4.3028   22.1277 C   0  0  0  0  0  0  0  0  0  0  0  0
   11.1290   -4.8502   19.8052 C   0  0  0  0  0  0  0  0  0  0  0  0
   12.4329   -4.2159   24.4224 C   0  0  0  0  0  0  0  0  0  0  0  0
    3.4740   -9.0387   16.5022 C   0  0  0  0  0  0  0  0  0  0  0  0
    6.8384   -7.9290   17.5282 N   0  0  0  0  0  0  0  0  0  0  0  0
    9.4126   -5.9853   18.4899 C   0  0  0  0  0  0  0  0  0  0  0  0
    4.2064  -10.3242   18.3302 C   0  0  0  0  0  0  0  0  0  0  0  0
    9.6599   -4.1551   16.4796 N   0  0  0  0  0  0  0  0  0  0  0  0
    7.0644   -6.4612   15.7375 N   0  0  0  0  0  0  0  0  0  0  0  0
    5.3549   -9.6322   18.3190 C   0  0  0  0  0  0  0  0  0  0  0  0
   10.3704   -4.9638   18.6510 C   0  0  0  0  0  0  0  0  0  0  0  0
    5.5935   -8.6419   17.4234 C   0  0  0  0  0  0  0  0  0  0  0  0
   13.0726   -4.6648   23.3394 O   0  0  0  0  0  0  0  0  0  0  0  0
    8.5955   -6.0705   17.3996 C   0  0  0  0  0  0  0  0  0  0  0  0
    4.6223   -8.3832   16.5030 C   0  0  0  0  0  0  0  0  0  0  0  0
   12.4690   -5.2624   19.9024 C   0  0  0  0  0  0  0  0  0  0  0  0
    3.2548   -9.9919   17.4189 C   0  0  0  0  0  0  0  0  0  0  0  0
   12.4767   -4.7393   22.1790 C   0  0  0  0  0  0  0  0  0  0  0  0
    7.8593   -5.3772   15.3569 N   0  0  0  0  0  0  0  0  0  0  0  0
    7.4412   -6.9038   16.9283 C   0  0  0  0  0  0  0  0  0  0  0  0
  1 21  4  0
  1 23  4  0
  2  5  1  0
  2 13  4  0
  2 16  4  0
  3  6  4  0
  3  7  4  0
  4 13  4  0
  4 19  4  0
  4 24  4  0
  6 23  4  0
  7 16  1  0
  7 21  4  0
  8 18  1  0
  9 20  4  0
  9 22  4  0
 10 17  1  0
 10 25  1  0
 11 16  4  0
 11 19  4  0
 12 15  4  0
 12 22  4  0
 14 24  4  0
 14 25  4  0
 15 17  4  0
 17 20  4  0
 18 23  1  0
 19 25  4  0
M  END
$$$$

 Created by Python create_sdf_string function

 25 28  0  0  0  0  0  0  0  0999 V2000
   13.1533   -5.2399   21.0682 C   0  0  0  0  0  0  0  0  0  0  0  0
   10.4729   -4.0295   17.6135 C   0  0  0  0  0  0  0  0  0  0  0  0
   10.4789   -4.3641   20.9564 C   0  0  0  0  0  0  0  0  0  0  0  0
    8.7421   -5.1412   16.3650 C   0  0  0  0  0  0  0  0  0  0  0  0
   11.4353   -2.9204   17.8044 C   0  0  0  0  0  0  0  0  0  0  0  0
   11.1529   -4.3028   22.1277 C   0  0  0  0  0  0  0  0  0  0  0  0
   11.1290   -4.8502   19.8052 C   0  0  0  0  0  0  0  0  0  0  0  0
   12.4329   -4.2159   24.4224 C   0  0  0  0  0  0  0  0  0  0  0  0
    3.4740   -9.0387   16.5022 C   0  0  0  0  0  0  0  0  0  0  0  0
    6.8384   -7.9290   17.5282 N   0  0  0  0  0  0  0  0  0  0  0  0
    9.4126   -5.9853   18.4899 C   0  0  0  0  0  0  0  0  0  0  0  0
    4.2064  -10.3242   18.3302 C   0  0  0  0  0  0  0  0  0  0  0  0
    9.6599   -4.1551   16.4796 N   0  0  0  0  0  0  0  0  0  0  0  0
    7.0644   -6.4612   15.7375 N   0  0  0  0  0  0  0  0  0  0  0  0
    5.3549   -9.6322   18.3190 C   0  0  0  0  0  0  0  0  0  0  0  0
   10.3704   -4.9638   18.6510 C   0  0  0  0  0  0  0  0  0  0  0  0
    5.5935   -8.6419   17.4234 C   0  0  0  0  0  0  0  0  0  0  0  0
   13.0726   -4.6648   23.3394 O   0  0  0  0  0  0  0  0  0  0  0  0
    8.5955   -6.0705   17.3996 C   0  0  0  0  0  0  0  0  0  0  0  0
    4.6223   -8.3832   16.5030 C   0  0  0  0  0  0  0  0  0  0  0  0
   12.4690   -5.2624   19.9024 C   0  0  0  0  0  0  0  0  0  0  0  0
    3.2548   -9.9919   17.4189 C   0  0  0  0  0  0  0  0  0  0  0  0
   12.4767   -4.7393   22.1790 C   0  0  0  0  0  0  0  0  0  0  0  0
    7.8593   -5.3772   15.3569 N   0  0  0  0  0  0  0  0  0  0  0  0
    7.4412   -6.9038   16.9283 C   0  0  0  0  0  0  0  0  0  0  0  0
  1 21  4  0
  1 23  4  0
  2  5  1  0
  2 13  4  0
  2 16  4  0
  3  6  4  0
  3  7  4  0
  4 13  4  0
  4 19  4  0
  4 24  4  0
  6 23  4  0
  7 16  1  0
  7 21  4  0
  8 18  1  0
  9 20  4  0
  9 22  4  0
 10 17  1  0
 10 25  1  0
 11 16  4  0
 11 19  4  0
 12 15  4  0
 12 22  4  0
 14 24  4  0
 14 25  4  0
 15 17  4  0
 17 20  4  0
 18 23  1  0
 19 25  4  0
M  END
$$$$

 Created by Python create_sdf_string function

 25 28  0  0  0  0  0  0  0  0999 V2000
   13.1533   -5.2399   21.0682 C   0  0  0  0  0  0  0  0  0  0  0  0
   10.4729   -4.0295   17.6135 C   0  0  0  0  0  0  0  0  0  0  0  0
   10.4789   -4.3641   20.9564 C   0  0  0  0  0  0  0  0  0  0  0  0
    8.7421   -5.1412   16.3650 C   0  0  0  0  0  0  0  0  0  0  0  0
   11.4353   -2.9204   17.8044 C   0  0  0  0  0  0  0  0  0  0  0  0
   11.1529   -4.3028   22.1277 C   0  0  0  0  0  0  0  0  0  0  0  0
   11.1290   -4.8502   19.8052 C   0  0  0  0  0  0  0  0  0  0  0  0
   12.4329   -4.2159   24.4224 C   0  0  0  0  0  0  0  0  0  0  0  0
    3.4740   -9.0387   16.5022 C   0  0  0  0  0  0  0  0  0  0  0  0
    6.8384   -7.9290   17.5282 N   0  0  0  0  0  0  0  0  0  0  0  0
    9.4126   -5.9853   18.4899 C   0  0  0  0  0  0  0  0  0  0  0  0
    4.2064  -10.3242   18.3302 C   0  0  0  0  0  0  0  0  0  0  0  0
    9.6599   -4.1551   16.4796 N   0  0  0  0  0  0  0  0  0  0  0  0
    7.0644   -6.4612   15.7375 N   0  0  0  0  0  0  0  0  0  0  0  0
    5.3549   -9.6322   18.3190 C   0  0  0  0  0  0  0  0  0  0  0  0
   10.3704   -4.9638   18.6510 C   0  0  0  0  0  0  0  0  0  0  0  0
    5.5935   -8.6419   17.4234 C   0  0  0  0  0  0  0  0  0  0  0  0
   13.0726   -4.6648   23.3394 O   0  0  0  0  0  0  0  0  0  0  0  0
    8.5955   -6.0705   17.3996 C   0  0  0  0  0  0  0  0  0  0  0  0
    4.6223   -8.3832   16.5030 C   0  0  0  0  0  0  0  0  0  0  0  0
   12.4690   -5.2624   19.9024 C   0  0  0  0  0  0  0  0  0  0  0  0
    3.2548   -9.9919   17.4189 C   0  0  0  0  0  0  0  0  0  0  0  0
   12.4767   -4.7393   22.1790 C   0  0  0  0  0  0  0  0  0  0  0  0
    7.8593   -5.3772   15.3569 N   0  0  0  0  0  0  0  0  0  0  0  0
    7.4412   -6.9038   16.9283 C   0  0  0  0  0  0  0  0  0  0  0  0
  1 21  4  0
  1 23  4  0
  2  5  1  0
  2 13  4  0
  2 16  4  0
  3  6  4  0
  3  7  4  0
  4 13  4  0
  4 19  4  0
  4 24  4  0
  6 23  4  0
  7 16  1  0
  7 21  4  0
  8 18  1  0
  9 20  4  0
  9 22  4  0
 10 17  1  0
 10 25  1  0
 11 16  4  0
 11 19  4  0
 12 15  4  0
 12 22  4  0
 14 24  4  0
 14 25  4  0
 15 17  4  0
 17 20  4  0
 18 23  1  0
 19 25  4  0
M  END
$$$$

 Created by Python create_sdf_string function

 25 28  0  0  0  0  0  0  0  0999 V2000
   13.1533   -5.2399   21.0682 C   0  0  0  0  0  0  0  0  0  0  0  0
   10.4729   -4.0295   17.6135 C   0  0  0  0  0  0  0  0  0  0  0  0
   10.4789   -4.3641   20.9564 C   0  0  0  0  0  0  0  0  0  0  0  0
    8.7421   -5.1412   16.3650 C   0  0  0  0  0  0  0  0  0  0  0  0
   11.4353   -2.9204   17.8044 C   0  0  0  0  0  0  0  0  0  0  0  0
   11.1529   -4.3028   22.1277 C   0  0  0  0  0  0  0  0  0  0  0  0
   11.1290   -4.8502   19.8052 C   0  0  0  0  0  0  0  0  0  0  0  0
   12.4329   -4.2159   24.4224 C   0  0  0  0  0  0  0  0  0  0  0  0
    3.4740   -9.0387   16.5022 C   0  0  0  0  0  0  0  0  0  0  0  0
    6.8384   -7.9290   17.5282 N   0  0  0  0  0  0  0  0  0  0  0  0
    9.4126   -5.9853   18.4899 C   0  0  0  0  0  0  0  0  0  0  0  0
    4.2064  -10.3242   18.3302 C   0  0  0  0  0  0  0  0  0  0  0  0
    9.6599   -4.1551   16.4796 N   0  0  0  0  0  0  0  0  0  0  0  0
    7.0644   -6.4612   15.7375 N   0  0  0  0  0  0  0  0  0  0  0  0
    5.3549   -9.6322   18.3190 C   0  0  0  0  0  0  0  0  0  0  0  0
   10.3704   -4.9638   18.6510 C   0  0  0  0  0  0  0  0  0  0  0  0
    5.5935   -8.6419   17.4234 C   0  0  0  0  0  0  0  0  0  0  0  0
   13.0726   -4.6648   23.3394 O   0  0  0  0  0  0  0  0  0  0  0  0
    8.5955   -6.0705   17.3996 C   0  0  0  0  0  0  0  0  0  0  0  0
    4.6223   -8.3832   16.5030 C   0  0  0  0  0  0  0  0  0  0  0  0
   12.4690   -5.2624   19.9024 C   0  0  0  0  0  0  0  0  0  0  0  0
    3.2548   -9.9919   17.4189 C   0  0  0  0  0  0  0  0  0  0  0  0
   12.4767   -4.7393   22.1790 C   0  0  0  0  0  0  0  0  0  0  0  0
    7.8593   -5.3772   15.3569 N   0  0  0  0  0  0  0  0  0  0  0  0
    7.4412   -6.9038   16.9283 C   0  0  0  0  0  0  0  0  0  0  0  0
  1 21  4  0
  1 23  4  0
  2  5  1  0
  2 13  4  0
  2 16  4  0
  3  6  4  0
  3  7  4  0
  4 13  4  0
  4 19  4  0
  4 24  4  0
  6 23  4  0
  7 16  1  0
  7 21  4  0
  8 18  1  0
  9 20  4  0
  9 22  4  0
 10 17  1  0
 10 25  1  0
 11 16  4  0
 11 19  4  0
 12 15  4  0
 12 22  4  0
 14 24  4  0
 14 25  4  0
 15 17  4  0
 17 20  4  0
 18 23  1  0
 19 25  4  0
M  END
$$$$

 Created by Python create_sdf_string function

 25 28  0  0  0  0  0  0  0  0999 V2000
   13.1533   -5.2399   21.0682 C   0  0  0  0  0  0  0  0  0  0  0  0
   10.4729   -4.0295   17.6135 C   0  0  0  0  0  0  0  0  0  0  0  0
   10.4789   -4.3641   20.9564 C   0  0  0  0  0  0  0  0  0  0  0  0
    8.7421   -5.1412   16.3650 C   0  0  0  0  0  0  0  0  0  0  0  0
   11.4353   -2.9204   17.8044 C   0  0  0  0  0  0  0  0  0  0  0  0
   11.1529   -4.3028   22.1277 C   0  0  0  0  0  0  0  0  0  0  0  0
   11.1290   -4.8502   19.8052 C   0  0  0  0  0  0  0  0  0  0  0  0
   12.4329   -4.2159   24.4224 C   0  0  0  0  0  0  0  0  0  0  0  0
    3.4740   -9.0387   16.5022 C   0  0  0  0  0  0  0  0  0  0  0  0
    6.8384   -7.9290   17.5282 N   0  0  0  0  0  0  0  0  0  0  0  0
    9.4126   -5.9853   18.4899 C   0  0  0  0  0  0  0  0  0  0  0  0
    4.2064  -10.3242   18.3302 C   0  0  0  0  0  0  0  0  0  0  0  0
    9.6599   -4.1551   16.4796 N   0  0  0  0  0  0  0  0  0  0  0  0
    7.0644   -6.4612   15.7375 N   0  0  0  0  0  0  0  0  0  0  0  0
    5.3549   -9.6322   18.3190 C   0  0  0  0  0  0  0  0  0  0  0  0
   10.3704   -4.9638   18.6510 C   0  0  0  0  0  0  0  0  0  0  0  0
    5.5935   -8.6419   17.4234 C   0  0  0  0  0  0  0  0  0  0  0  0
   13.0726   -4.6648   23.3394 O   0  0  0  0  0  0  0  0  0  0  0  0
    8.5955   -6.0705   17.3996 C   0  0  0  0  0  0  0  0  0  0  0  0
    4.6223   -8.3832   16.5030 C   0  0  0  0  0  0  0  0  0  0  0  0
   12.4690   -5.2624   19.9024 C   0  0  0  0  0  0  0  0  0  0  0  0
    3.2548   -9.9919   17.4189 C   0  0  0  0  0  0  0  0  0  0  0  0
   12.4767   -4.7393   22.1790 C   0  0  0  0  0  0  0  0  0  0  0  0
    7.8593   -5.3772   15.3569 N   0  0  0  0  0  0  0  0  0  0  0  0
    7.4412   -6.9038   16.9283 C   0  0  0  0  0  0  0  0  0  0  0  0
  1 21  4  0
  1 23  4  0
  2  5  1  0
  2 13  4  0
  2 16  4  0
  3  6  4  0
  3  7  4  0
  4 13  4  0
  4 19  4  0
  4 24  4  0
  6 23  4  0
  7 16  1  0
  7 21  4  0
  8 18  1  0
  9 20  4  0
  9 22  4  0
 10 17  1  0
 10 25  1  0
 11 16  4  0
 11 19  4  0
 12 15  4  0
 12 22  4  0
 14 24  4  0
 14 25  4  0
 15 17  4  0
 17 20  4  0
 18 23  1  0
 19 25  4  0
M  END
$$$$

 Created by Python create_sdf_string function

 25 28  0  0  0  0  0  0  0  0999 V2000
   13.1533   -5.2399   21.0682 C   0  0  0  0  0  0  0  0  0  0  0  0
   10.4729   -4.0295   17.6135 C   0  0  0  0  0  0  0  0  0  0  0  0
   10.4789   -4.3641   20.9564 C   0  0  0  0  0  0  0  0  0  0  0  0
    8.7421   -5.1412   16.3650 C   0  0  0  0  0  0  0  0  0  0  0  0
   11.4353   -2.9204   17.8044 C   0  0  0  0  0  0  0  0  0  0  0  0
   11.1529   -4.3028   22.1277 C   0  0  0  0  0  0  0  0  0  0  0  0
   11.1290   -4.8502   19.8052 C   0  0  0  0  0  0  0  0  0  0  0  0
   12.4329   -4.2159   24.4224 C   0  0  0  0  0  0  0  0  0  0  0  0
    3.4740   -9.0387   16.5022 C   0  0  0  0  0  0  0  0  0  0  0  0
    6.8384   -7.9290   17.5282 N   0  0  0  0  0  0  0  0  0  0  0  0
    9.4126   -5.9853   18.4899 C   0  0  0  0  0  0  0  0  0  0  0  0
    4.2064  -10.3242   18.3302 C   0  0  0  0  0  0  0  0  0  0  0  0
    9.6599   -4.1551   16.4796 N   0  0  0  0  0  0  0  0  0  0  0  0
    7.0644   -6.4612   15.7375 N   0  0  0  0  0  0  0  0  0  0  0  0
    5.3549   -9.6322   18.3190 C   0  0  0  0  0  0  0  0  0  0  0  0
   10.3704   -4.9638   18.6510 C   0  0  0  0  0  0  0  0  0  0  0  0
    5.5935   -8.6419   17.4234 C   0  0  0  0  0  0  0  0  0  0  0  0
   13.0726   -4.6648   23.3394 O   0  0  0  0  0  0  0  0  0  0  0  0
    8.5955   -6.0705   17.3996 C   0  0  0  0  0  0  0  0  0  0  0  0
    4.6223   -8.3832   16.5030 C   0  0  0  0  0  0  0  0  0  0  0  0
   12.4690   -5.2624   19.9024 C   0  0  0  0  0  0  0  0  0  0  0  0
    3.2548   -9.9919   17.4189 C   0  0  0  0  0  0  0  0  0  0  0  0
   12.4767   -4.7393   22.1790 C   0  0  0  0  0  0  0  0  0  0  0  0
    7.8593   -5.3772   15.3569 N   0  0  0  0  0  0  0  0  0  0  0  0
    7.4412   -6.9038   16.9283 C   0  0  0  0  0  0  0  0  0  0  0  0
  1 21  4  0
  1 23  4  0
  2  5  1  0
  2 13  4  0
  2 16  4  0
  3  6  4  0
  3  7  4  0
  4 13  4  0
  4 19  4  0
  4 24  4  0
  6 23  4  0
  7 16  1  0
  7 21  4  0
  8 18  1  0
  9 20  4  0
  9 22  4  0
 10 17  1  0
 10 25  1  0
 11 16  4  0
 11 19  4  0
 12 15  4  0
 12 22  4  0
 14 24  4  0
 14 25  4  0
 15 17  4  0
 17 20  4  0
 18 23  1  0
 19 25  4  0
M  END
$$$$

 Created by Python create_sdf_string function

 25 28  0  0  0  0  0  0  0  0999 V2000
   13.1533   -5.2399   21.0682 C   0  0  0  0  0  0  0  0  0  0  0  0
   10.4729   -4.0295   17.6135 C   0  0  0  0  0  0  0  0  0  0  0  0
   10.4789   -4.3641   20.9564 C   0  0  0  0  0  0  0  0  0  0  0  0
    8.7421   -5.1412   16.3650 C   0  0  0  0  0  0  0  0  0  0  0  0
   11.4353   -2.9204   17.8044 C   0  0  0  0  0  0  0  0  0  0  0  0
   11.1529   -4.3028   22.1277 C   0  0  0  0  0  0  0  0  0  0  0  0
   11.1290   -4.8502   19.8052 C   0  0  0  0  0  0  0  0  0  0  0  0
   12.4329   -4.2159   24.4224 C   0  0  0  0  0  0  0  0  0  0  0  0
    3.4740   -9.0387   16.5022 C   0  0  0  0  0  0  0  0  0  0  0  0
    6.8384   -7.9290   17.5282 N   0  0  0  0  0  0  0  0  0  0  0  0
    9.4126   -5.9853   18.4899 C   0  0  0  0  0  0  0  0  0  0  0  0
    4.2064  -10.3242   18.3302 C   0  0  0  0  0  0  0  0  0  0  0  0
    9.6599   -4.1551   16.4796 N   0  0  0  0  0  0  0  0  0  0  0  0
    7.0644   -6.4612   15.7375 N   0  0  0  0  0  0  0  0  0  0  0  0
    5.3549   -9.6322   18.3190 C   0  0  0  0  0  0  0  0  0  0  0  0
   10.3704   -4.9638   18.6510 C   0  0  0  0  0  0  0  0  0  0  0  0
    5.5935   -8.6419   17.4234 C   0  0  0  0  0  0  0  0  0  0  0  0
   13.0726   -4.6648   23.3394 O   0  0  0  0  0  0  0  0  0  0  0  0
    8.5955   -6.0705   17.3996 C   0  0  0  0  0  0  0  0  0  0  0  0
    4.6223   -8.3832   16.5030 C   0  0  0  0  0  0  0  0  0  0  0  0
   12.4690   -5.2624   19.9024 C   0  0  0  0  0  0  0  0  0  0  0  0
    3.2548   -9.9919   17.4189 C   0  0  0  0  0  0  0  0  0  0  0  0
   12.4767   -4.7393   22.1790 C   0  0  0  0  0  0  0  0  0  0  0  0
    7.8593   -5.3772   15.3569 N   0  0  0  0  0  0  0  0  0  0  0  0
    7.4412   -6.9038   16.9283 C   0  0  0  0  0  0  0  0  0  0  0  0
  1 21  4  0
  1 23  4  0
  2  5  1  0
  2 13  4  0
  2 16  4  0
  3  6  4  0
  3  7  4  0
  4 13  4  0
  4 19  4  0
  4 24  4  0
  6 23  4  0
  7 16  1  0
  7 21  4  0
  8 18  1  0
  9 20  4  0
  9 22  4  0
 10 17  1  0
 10 25  1  0
 11 16  4  0
 11 19  4  0
 12 15  4  0
 12 22  4  0
 14 24  4  0
 14 25  4  0
 15 17  4  0
 17 20  4  0
 18 23  1  0
 19 25  4  0
M  END
$$$$

 Created by Python create_sdf_string function

 25 28  0  0  0  0  0  0  0  0999 V2000
   13.1533   -5.2399   21.0682 C   0  0  0  0  0  0  0  0  0  0  0  0
   10.4729   -4.0295   17.6135 C   0  0  0  0  0  0  0  0  0  0  0  0
   10.4789   -4.3641   20.9564 C   0  0  0  0  0  0  0  0  0  0  0  0
    8.7421   -5.1412   16.3650 C   0  0  0  0  0  0  0  0  0  0  0  0
   11.4353   -2.9204   17.8044 C   0  0  0  0  0  0  0  0  0  0  0  0
   11.1529   -4.3028   22.1277 C   0  0  0  0  0  0  0  0  0  0  0  0
   11.1290   -4.8502   19.8052 C   0  0  0  0  0  0  0  0  0  0  0  0
   12.4329   -4.2159   24.4224 C   0  0  0  0  0  0  0  0  0  0  0  0
    3.4740   -9.0387   16.5022 C   0  0  0  0  0  0  0  0  0  0  0  0
    6.8384   -7.9290   17.5282 N   0  0  0  0  0  0  0  0  0  0  0  0
    9.4126   -5.9853   18.4899 C   0  0  0  0  0  0  0  0  0  0  0  0
    4.2064  -10.3242   18.3302 C   0  0  0  0  0  0  0  0  0  0  0  0
    9.6599   -4.1551   16.4796 N   0  0  0  0  0  0  0  0  0  0  0  0
    7.0644   -6.4612   15.7375 N   0  0  0  0  0  0  0  0  0  0  0  0
    5.3549   -9.6322   18.3190 C   0  0  0  0  0  0  0  0  0  0  0  0
   10.3704   -4.9638   18.6510 C   0  0  0  0  0  0  0  0  0  0  0  0
    5.5935   -8.6419   17.4234 C   0  0  0  0  0  0  0  0  0  0  0  0
   13.0726   -4.6648   23.3394 O   0  0  0  0  0  0  0  0  0  0  0  0
    8.5955   -6.0705   17.3996 C   0  0  0  0  0  0  0  0  0  0  0  0
    4.6223   -8.3832   16.5030 C   0  0  0  0  0  0  0  0  0  0  0  0
   12.4690   -5.2624   19.9024 C   0  0  0  0  0  0  0  0  0  0  0  0
    3.2548   -9.9919   17.4189 C   0  0  0  0  0  0  0  0  0  0  0  0
   12.4767   -4.7393   22.1790 C   0  0  0  0  0  0  0  0  0  0  0  0
    7.8593   -5.3772   15.3569 N   0  0  0  0  0  0  0  0  0  0  0  0
    7.4412   -6.9038   16.9283 C   0  0  0  0  0  0  0  0  0  0  0  0
  1 21  4  0
  1 23  4  0
  2  5  1  0
  2 13  4  0
  2 16  4  0
  3  6  4  0
  3  7  4  0
  4 13  4  0
  4 19  4  0
  4 24  4  0
  6 23  4  0
  7 16  1  0
  7 21  4  0
  8 18  1  0
  9 20  4  0
  9 22  4  0
 10 17  1  0
 10 25  1  0
 11 16  4  0
 11 19  4  0
 12 15  4  0
 12 22  4  0
 14 24  4  0
 14 25  4  0
 15 17  4  0
 17 20  4  0
 18 23  1  0
 19 25  4  0
M  END
$$$$

 Created by Python create_sdf_string function

 25 28  0  0  0  0  0  0  0  0999 V2000
   13.1533   -5.2399   21.0682 C   0  0  0  0  0  0  0  0  0  0  0  0
   10.4729   -4.0295   17.6135 C   0  0  0  0  0  0  0  0  0  0  0  0
   10.4789   -4.3641   20.9564 C   0  0  0  0  0  0  0  0  0  0  0  0
    8.7421   -5.1412   16.3650 C   0  0  0  0  0  0  0  0  0  0  0  0
   11.4353   -2.9204   17.8044 C   0  0  0  0  0  0  0  0  0  0  0  0
   11.1529   -4.3028   22.1277 C   0  0  0  0  0  0  0  0  0  0  0  0
   11.1290   -4.8502   19.8052 C   0  0  0  0  0  0  0  0  0  0  0  0
   12.4329   -4.2159   24.4224 C   0  0  0  0  0  0  0  0  0  0  0  0
    3.4740   -9.0387   16.5022 C   0  0  0  0  0  0  0  0  0  0  0  0
    6.8384   -7.9290   17.5282 N   0  0  0  0  0  0  0  0  0  0  0  0
    9.4126   -5.9853   18.4899 C   0  0  0  0  0  0  0  0  0  0  0  0
    4.2064  -10.3242   18.3302 C   0  0  0  0  0  0  0  0  0  0  0  0
    9.6599   -4.1551   16.4796 N   0  0  0  0  0  0  0  0  0  0  0  0
    7.0644   -6.4612   15.7375 N   0  0  0  0  0  0  0  0  0  0  0  0
    5.3549   -9.6322   18.3190 C   0  0  0  0  0  0  0  0  0  0  0  0
   10.3704   -4.9638   18.6510 C   0  0  0  0  0  0  0  0  0  0  0  0
    5.5935   -8.6419   17.4234 C   0  0  0  0  0  0  0  0  0  0  0  0
   13.0726   -4.6648   23.3394 O   0  0  0  0  0  0  0  0  0  0  0  0
    8.5955   -6.0705   17.3996 C   0  0  0  0  0  0  0  0  0  0  0  0
    4.6223   -8.3832   16.5030 C   0  0  0  0  0  0  0  0  0  0  0  0
   12.4690   -5.2624   19.9024 C   0  0  0  0  0  0  0  0  0  0  0  0
    3.2548   -9.9919   17.4189 C   0  0  0  0  0  0  0  0  0  0  0  0
   12.4767   -4.7393   22.1790 C   0  0  0  0  0  0  0  0  0  0  0  0
    7.8593   -5.3772   15.3569 N   0  0  0  0  0  0  0  0  0  0  0  0
    7.4412   -6.9038   16.9283 C   0  0  0  0  0  0  0  0  0  0  0  0
  1 21  4  0
  1 23  4  0
  2  5  1  0
  2 13  4  0
  2 16  4  0
  3  6  4  0
  3  7  4  0
  4 13  4  0
  4 19  4  0
  4 24  4  0
  6 23  4  0
  7 16  1  0
  7 21  4  0
  8 18  1  0
  9 20  4  0
  9 22  4  0
 10 17  1  0
 10 25  1  0
 11 16  4  0
 11 19  4  0
 12 15  4  0
 12 22  4  0
 14 24  4  0
 14 25  4  0
 15 17  4  0
 17 20  4  0
 18 23  1  0
 19 25  4  0
M  END
$$$$

 Created by Python create_sdf_string function

 25 28  0  0  0  0  0  0  0  0999 V2000
   13.1533   -5.2399   21.0682 C   0  0  0  0  0  0  0  0  0  0  0  0
   10.4729   -4.0295   17.6135 C   0  0  0  0  0  0  0  0  0  0  0  0
   10.4789   -4.3641   20.9564 C   0  0  0  0  0  0  0  0  0  0  0  0
    8.7421   -5.1412   16.3650 C   0  0  0  0  0  0  0  0  0  0  0  0
   11.4353   -2.9204   17.8044 C   0  0  0  0  0  0  0  0  0  0  0  0
   11.1529   -4.3028   22.1277 C   0  0  0  0  0  0  0  0  0  0  0  0
   11.1290   -4.8502   19.8052 C   0  0  0  0  0  0  0  0  0  0  0  0
   12.4329   -4.2159   24.4224 C   0  0  0  0  0  0  0  0  0  0  0  0
    3.4740   -9.0387   16.5022 C   0  0  0  0  0  0  0  0  0  0  0  0
    6.8384   -7.9290   17.5282 N   0  0  0  0  0  0  0  0  0  0  0  0
    9.4126   -5.9853   18.4899 C   0  0  0  0  0  0  0  0  0  0  0  0
    4.2064  -10.3242   18.3302 C   0  0  0  0  0  0  0  0  0  0  0  0
    9.6599   -4.1551   16.4796 N   0  0  0  0  0  0  0  0  0  0  0  0
    7.0644   -6.4612   15.7375 N   0  0  0  0  0  0  0  0  0  0  0  0
    5.3549   -9.6322   18.3190 C   0  0  0  0  0  0  0  0  0  0  0  0
   10.3704   -4.9638   18.6510 C   0  0  0  0  0  0  0  0  0  0  0  0
    5.5935   -8.6419   17.4234 C   0  0  0  0  0  0  0  0  0  0  0  0
   13.0726   -4.6648   23.3394 O   0  0  0  0  0  0  0  0  0  0  0  0
    8.5955   -6.0705   17.3996 C   0  0  0  0  0  0  0  0  0  0  0  0
    4.6223   -8.3832   16.5030 C   0  0  0  0  0  0  0  0  0  0  0  0
   12.4690   -5.2624   19.9024 C   0  0  0  0  0  0  0  0  0  0  0  0
    3.2548   -9.9919   17.4189 C   0  0  0  0  0  0  0  0  0  0  0  0
   12.4767   -4.7393   22.1790 C   0  0  0  0  0  0  0  0  0  0  0  0
    7.8593   -5.3772   15.3569 N   0  0  0  0  0  0  0  0  0  0  0  0
    7.4412   -6.9038   16.9283 C   0  0  0  0  0  0  0  0  0  0  0  0
  1 21  4  0
  1 23  4  0
  2  5  1  0
  2 13  4  0
  2 16  4  0
  3  6  4  0
  3  7  4  0
  4 13  4  0
  4 19  4  0
  4 24  4  0
  6 23  4  0
  7 16  1  0
  7 21  4  0
  8 18  1  0
  9 20  4  0
  9 22  4  0
 10 17  1  0
 10 25  1  0
 11 16  4  0
 11 19  4  0
 12 15  4  0
 12 22  4  0
 14 24  4  0
 14 25  4  0
 15 17  4  0
 17 20  4  0
 18 23  1  0
 19 25  4  0
M  END
$$$$

 Created by Python create_sdf_string function

 25 28  0  0  0  0  0  0  0  0999 V2000
   13.1533   -5.2399   21.0682 C   0  0  0  0  0  0  0  0  0  0  0  0
   10.4729   -4.0295   17.6135 C   0  0  0  0  0  0  0  0  0  0  0  0
   10.4789   -4.3641   20.9564 C   0  0  0  0  0  0  0  0  0  0  0  0
    8.7421   -5.1412   16.3650 C   0  0  0  0  0  0  0  0  0  0  0  0
   11.4353   -2.9204   17.8044 C   0  0  0  0  0  0  0  0  0  0  0  0
   11.1529   -4.3028   22.1277 C   0  0  0  0  0  0  0  0  0  0  0  0
   11.1290   -4.8502   19.8052 C   0  0  0  0  0  0  0  0  0  0  0  0
   12.4329   -4.2159   24.4224 C   0  0  0  0  0  0  0  0  0  0  0  0
    3.4740   -9.0387   16.5022 C   0  0  0  0  0  0  0  0  0  0  0  0
    6.8384   -7.9290   17.5282 N   0  0  0  0  0  0  0  0  0  0  0  0
    9.4126   -5.9853   18.4899 C   0  0  0  0  0  0  0  0  0  0  0  0
    4.2064  -10.3242   18.3302 C   0  0  0  0  0  0  0  0  0  0  0  0
    9.6599   -4.1551   16.4796 N   0  0  0  0  0  0  0  0  0  0  0  0
    7.0644   -6.4612   15.7375 N   0  0  0  0  0  0  0  0  0  0  0  0
    5.3549   -9.6322   18.3190 C   0  0  0  0  0  0  0  0  0  0  0  0
   10.3704   -4.9638   18.6510 C   0  0  0  0  0  0  0  0  0  0  0  0
    5.5935   -8.6419   17.4234 C   0  0  0  0  0  0  0  0  0  0  0  0
   13.0726   -4.6648   23.3394 O   0  0  0  0  0  0  0  0  0  0  0  0
    8.5955   -6.0705   17.3996 C   0  0  0  0  0  0  0  0  0  0  0  0
    4.6223   -8.3832   16.5030 C   0  0  0  0  0  0  0  0  0  0  0  0
   12.4690   -5.2624   19.9024 C   0  0  0  0  0  0  0  0  0  0  0  0
    3.2548   -9.9919   17.4189 C   0  0  0  0  0  0  0  0  0  0  0  0
   12.4767   -4.7393   22.1790 C   0  0  0  0  0  0  0  0  0  0  0  0
    7.8593   -5.3772   15.3569 N   0  0  0  0  0  0  0  0  0  0  0  0
    7.4412   -6.9038   16.9283 C   0  0  0  0  0  0  0  0  0  0  0  0
  1 21  4  0
  1 23  4  0
  2  5  1  0
  2 13  4  0
  2 16  4  0
  3  6  4  0
  3  7  4  0
  4 13  4  0
  4 19  4  0
  4 24  4  0
  6 23  4  0
  7 16  1  0
  7 21  4  0
  8 18  1  0
  9 20  4  0
  9 22  4  0
 10 17  1  0
 10 25  1  0
 11 16  4  0
 11 19  4  0
 12 15  4  0
 12 22  4  0
 14 24  4  0
 14 25  4  0
 15 17  4  0
 17 20  4  0
 18 23  1  0
 19 25  4  0
M  END
$$$$

 Created by Python create_sdf_string function

 25 28  0  0  0  0  0  0  0  0999 V2000
   13.1533   -5.2399   21.0682 C   0  0  0  0  0  0  0  0  0  0  0  0
   10.4729   -4.0295   17.6135 C   0  0  0  0  0  0  0  0  0  0  0  0
   10.4789   -4.3641   20.9564 C   0  0  0  0  0  0  0  0  0  0  0  0
    8.7421   -5.1412   16.3650 C   0  0  0  0  0  0  0  0  0  0  0  0
   11.4353   -2.9204   17.8044 C   0  0  0  0  0  0  0  0  0  0  0  0
   11.1529   -4.3028   22.1277 C   0  0  0  0  0  0  0  0  0  0  0  0
   11.1290   -4.8502   19.8052 C   0  0  0  0  0  0  0  0  0  0  0  0
   12.4329   -4.2159   24.4224 C   0  0  0  0  0  0  0  0  0  0  0  0
    3.4740   -9.0387   16.5022 C   0  0  0  0  0  0  0  0  0  0  0  0
    6.8384   -7.9290   17.5282 N   0  0  0  0  0  0  0  0  0  0  0  0
    9.4126   -5.9853   18.4899 C   0  0  0  0  0  0  0  0  0  0  0  0
    4.2064  -10.3242   18.3302 C   0  0  0  0  0  0  0  0  0  0  0  0
    9.6599   -4.1551   16.4796 N   0  0  0  0  0  0  0  0  0  0  0  0
    7.0644   -6.4612   15.7375 N   0  0  0  0  0  0  0  0  0  0  0  0
    5.3549   -9.6322   18.3190 C   0  0  0  0  0  0  0  0  0  0  0  0
   10.3704   -4.9638   18.6510 C   0  0  0  0  0  0  0  0  0  0  0  0
    5.5935   -8.6419   17.4234 C   0  0  0  0  0  0  0  0  0  0  0  0
   13.0726   -4.6648   23.3394 O   0  0  0  0  0  0  0  0  0  0  0  0
    8.5955   -6.0705   17.3996 C   0  0  0  0  0  0  0  0  0  0  0  0
    4.6223   -8.3832   16.5030 C   0  0  0  0  0  0  0  0  0  0  0  0
   12.4690   -5.2624   19.9024 C   0  0  0  0  0  0  0  0  0  0  0  0
    3.2548   -9.9919   17.4189 C   0  0  0  0  0  0  0  0  0  0  0  0
   12.4767   -4.7393   22.1790 C   0  0  0  0  0  0  0  0  0  0  0  0
    7.8593   -5.3772   15.3569 N   0  0  0  0  0  0  0  0  0  0  0  0
    7.4412   -6.9038   16.9283 C   0  0  0  0  0  0  0  0  0  0  0  0
  1 21  4  0
  1 23  4  0
  2  5  1  0
  2 13  4  0
  2 16  4  0
  3  6  4  0
  3  7  4  0
  4 13  4  0
  4 19  4  0
  4 24  4  0
  6 23  4  0
  7 16  1  0
  7 21  4  0
  8 18  1  0
  9 20  4  0
  9 22  4  0
 10 17  1  0
 10 25  1  0
 11 16  4  0
 11 19  4  0
 12 15  4  0
 12 22  4  0
 14 24  4  0
 14 25  4  0
 15 17  4  0
 17 20  4  0
 18 23  1  0
 19 25  4  0
M  END
$$$$

 Created by Python create_sdf_string function

 25 28  0  0  0  0  0  0  0  0999 V2000
   13.1533   -5.2399   21.0682 C   0  0  0  0  0  0  0  0  0  0  0  0
   10.4729   -4.0295   17.6135 C   0  0  0  0  0  0  0  0  0  0  0  0
   10.4789   -4.3641   20.9564 C   0  0  0  0  0  0  0  0  0  0  0  0
    8.7421   -5.1412   16.3650 C   0  0  0  0  0  0  0  0  0  0  0  0
   11.4353   -2.9204   17.8044 C   0  0  0  0  0  0  0  0  0  0  0  0
   11.1529   -4.3028   22.1277 C   0  0  0  0  0  0  0  0  0  0  0  0
   11.1290   -4.8502   19.8052 C   0  0  0  0  0  0  0  0  0  0  0  0
   12.4329   -4.2159   24.4224 C   0  0  0  0  0  0  0  0  0  0  0  0
    3.4740   -9.0387   16.5022 C   0  0  0  0  0  0  0  0  0  0  0  0
    6.8384   -7.9290   17.5282 N   0  0  0  0  0  0  0  0  0  0  0  0
    9.4126   -5.9853   18.4899 C   0  0  0  0  0  0  0  0  0  0  0  0
    4.2064  -10.3242   18.3302 C   0  0  0  0  0  0  0  0  0  0  0  0
    9.6599   -4.1551   16.4796 N   0  0  0  0  0  0  0  0  0  0  0  0
    7.0644   -6.4612   15.7375 N   0  0  0  0  0  0  0  0  0  0  0  0
    5.3549   -9.6322   18.3190 C   0  0  0  0  0  0  0  0  0  0  0  0
   10.3704   -4.9638   18.6510 C   0  0  0  0  0  0  0  0  0  0  0  0
    5.5935   -8.6419   17.4234 C   0  0  0  0  0  0  0  0  0  0  0  0
   13.0726   -4.6648   23.3394 O   0  0  0  0  0  0  0  0  0  0  0  0
    8.5955   -6.0705   17.3996 C   0  0  0  0  0  0  0  0  0  0  0  0
    4.6223   -8.3832   16.5030 C   0  0  0  0  0  0  0  0  0  0  0  0
   12.4690   -5.2624   19.9024 C   0  0  0  0  0  0  0  0  0  0  0  0
    3.2548   -9.9919   17.4189 C   0  0  0  0  0  0  0  0  0  0  0  0
   12.4767   -4.7393   22.1790 C   0  0  0  0  0  0  0  0  0  0  0  0
    7.8593   -5.3772   15.3569 N   0  0  0  0  0  0  0  0  0  0  0  0
    7.4412   -6.9038   16.9283 C   0  0  0  0  0  0  0  0  0  0  0  0
  1 21  4  0
  1 23  4  0
  2  5  1  0
  2 13  4  0
  2 16  4  0
  3  6  4  0
  3  7  4  0
  4 13  4  0
  4 19  4  0
  4 24  4  0
  6 23  4  0
  7 16  1  0
  7 21  4  0
  8 18  1  0
  9 20  4  0
  9 22  4  0
 10 17  1  0
 10 25  1  0
 11 16  4  0
 11 19  4  0
 12 15  4  0
 12 22  4  0
 14 24  4  0
 14 25  4  0
 15 17  4  0
 17 20  4  0
 18 23  1  0
 19 25  4  0
M  END
$$$$

 Created by Python create_sdf_string function

 25 28  0  0  0  0  0  0  0  0999 V2000
   13.1533   -5.2399   21.0682 C   0  0  0  0  0  0  0  0  0  0  0  0
   10.4729   -4.0295   17.6135 C   0  0  0  0  0  0  0  0  0  0  0  0
   10.4789   -4.3641   20.9564 C   0  0  0  0  0  0  0  0  0  0  0  0
    8.7421   -5.1412   16.3650 C   0  0  0  0  0  0  0  0  0  0  0  0
   11.4353   -2.9204   17.8044 C   0  0  0  0  0  0  0  0  0  0  0  0
   11.1529   -4.3028   22.1277 C   0  0  0  0  0  0  0  0  0  0  0  0
   11.1290   -4.8502   19.8052 C   0  0  0  0  0  0  0  0  0  0  0  0
   12.4329   -4.2159   24.4224 C   0  0  0  0  0  0  0  0  0  0  0  0
    3.4740   -9.0387   16.5022 C   0  0  0  0  0  0  0  0  0  0  0  0
    6.8384   -7.9290   17.5282 N   0  0  0  0  0  0  0  0  0  0  0  0
    9.4126   -5.9853   18.4899 C   0  0  0  0  0  0  0  0  0  0  0  0
    4.2064  -10.3242   18.3302 C   0  0  0  0  0  0  0  0  0  0  0  0
    9.6599   -4.1551   16.4796 N   0  0  0  0  0  0  0  0  0  0  0  0
    7.0644   -6.4612   15.7375 N   0  0  0  0  0  0  0  0  0  0  0  0
    5.3549   -9.6322   18.3190 C   0  0  0  0  0  0  0  0  0  0  0  0
   10.3704   -4.9638   18.6510 C   0  0  0  0  0  0  0  0  0  0  0  0
    5.5935   -8.6419   17.4234 C   0  0  0  0  0  0  0  0  0  0  0  0
   13.0726   -4.6648   23.3394 O   0  0  0  0  0  0  0  0  0  0  0  0
    8.5955   -6.0705   17.3996 C   0  0  0  0  0  0  0  0  0  0  0  0
    4.6223   -8.3832   16.5030 C   0  0  0  0  0  0  0  0  0  0  0  0
   12.4690   -5.2624   19.9024 C   0  0  0  0  0  0  0  0  0  0  0  0
    3.2548   -9.9919   17.4189 C   0  0  0  0  0  0  0  0  0  0  0  0
   12.4767   -4.7393   22.1790 C   0  0  0  0  0  0  0  0  0  0  0  0
    7.8593   -5.3772   15.3569 N   0  0  0  0  0  0  0  0  0  0  0  0
    7.4412   -6.9038   16.9283 C   0  0  0  0  0  0  0  0  0  0  0  0
  1 21  4  0
  1 23  4  0
  2  5  1  0
  2 13  4  0
  2 16  4  0
  3  6  4  0
  3  7  4  0
  4 13  4  0
  4 19  4  0
  4 24  4  0
  6 23  4  0
  7 16  1  0
  7 21  4  0
  8 18  1  0
  9 20  4  0
  9 22  4  0
 10 17  1  0
 10 25  1  0
 11 16  4  0
 11 19  4  0
 12 15  4  0
 12 22  4  0
 14 24  4  0
 14 25  4  0
 15 17  4  0
 17 20  4  0
 18 23  1  0
 19 25  4  0
M  END
$$$$

 Created by Python create_sdf_string function

 25 28  0  0  0  0  0  0  0  0999 V2000
   13.1533   -5.2399   21.0682 C   0  0  0  0  0  0  0  0  0  0  0  0
   10.4729   -4.0295   17.6135 C   0  0  0  0  0  0  0  0  0  0  0  0
   10.4789   -4.3641   20.9564 C   0  0  0  0  0  0  0  0  0  0  0  0
    8.7421   -5.1412   16.3650 C   0  0  0  0  0  0  0  0  0  0  0  0
   11.4353   -2.9204   17.8044 C   0  0  0  0  0  0  0  0  0  0  0  0
   11.1529   -4.3028   22.1277 C   0  0  0  0  0  0  0  0  0  0  0  0
   11.1290   -4.8502   19.8052 C   0  0  0  0  0  0  0  0  0  0  0  0
   12.4329   -4.2159   24.4224 C   0  0  0  0  0  0  0  0  0  0  0  0
    3.4740   -9.0387   16.5022 C   0  0  0  0  0  0  0  0  0  0  0  0
    6.8384   -7.9290   17.5282 N   0  0  0  0  0  0  0  0  0  0  0  0
    9.4126   -5.9853   18.4899 C   0  0  0  0  0  0  0  0  0  0  0  0
    4.2064  -10.3242   18.3302 C   0  0  0  0  0  0  0  0  0  0  0  0
    9.6599   -4.1551   16.4796 N   0  0  0  0  0  0  0  0  0  0  0  0
    7.0644   -6.4612   15.7375 N   0  0  0  0  0  0  0  0  0  0  0  0
    5.3549   -9.6322   18.3190 C   0  0  0  0  0  0  0  0  0  0  0  0
   10.3704   -4.9638   18.6510 C   0  0  0  0  0  0  0  0  0  0  0  0
    5.5935   -8.6419   17.4234 C   0  0  0  0  0  0  0  0  0  0  0  0
   13.0726   -4.6648   23.3394 O   0  0  0  0  0  0  0  0  0  0  0  0
    8.5955   -6.0705   17.3996 C   0  0  0  0  0  0  0  0  0  0  0  0
    4.6223   -8.3832   16.5030 C   0  0  0  0  0  0  0  0  0  0  0  0
   12.4690   -5.2624   19.9024 C   0  0  0  0  0  0  0  0  0  0  0  0
    3.2548   -9.9919   17.4189 C   0  0  0  0  0  0  0  0  0  0  0  0
   12.4767   -4.7393   22.1790 C   0  0  0  0  0  0  0  0  0  0  0  0
    7.8593   -5.3772   15.3569 N   0  0  0  0  0  0  0  0  0  0  0  0
    7.4412   -6.9038   16.9283 C   0  0  0  0  0  0  0  0  0  0  0  0
  1 21  4  0
  1 23  4  0
  2  5  1  0
  2 13  4  0
  2 16  4  0
  3  6  4  0
  3  7  4  0
  4 13  4  0
  4 19  4  0
  4 24  4  0
  6 23  4  0
  7 16  1  0
  7 21  4  0
  8 18  1  0
  9 20  4  0
  9 22  4  0
 10 17  1  0
 10 25  1  0
 11 16  4  0
 11 19  4  0
 12 15  4  0
 12 22  4  0
 14 24  4  0
 14 25  4  0
 15 17  4  0
 17 20  4  0
 18 23  1  0
 19 25  4  0
M  END
$$$$

 Created by Python create_sdf_string function

 25 28  0  0  0  0  0  0  0  0999 V2000
   13.1533   -5.2399   21.0682 C   0  0  0  0  0  0  0  0  0  0  0  0
   10.4729   -4.0295   17.6135 C   0  0  0  0  0  0  0  0  0  0  0  0
   10.4789   -4.3641   20.9564 C   0  0  0  0  0  0  0  0  0  0  0  0
    8.7421   -5.1412   16.3650 C   0  0  0  0  0  0  0  0  0  0  0  0
   11.4353   -2.9204   17.8044 C   0  0  0  0  0  0  0  0  0  0  0  0
   11.1529   -4.3028   22.1277 C   0  0  0  0  0  0  0  0  0  0  0  0
   11.1290   -4.8502   19.8052 C   0  0  0  0  0  0  0  0  0  0  0  0
   12.4329   -4.2159   24.4224 C   0  0  0  0  0  0  0  0  0  0  0  0
    3.4740   -9.0387   16.5022 C   0  0  0  0  0  0  0  0  0  0  0  0
    6.8384   -7.9290   17.5282 N   0  0  0  0  0  0  0  0  0  0  0  0
    9.4126   -5.9853   18.4899 C   0  0  0  0  0  0  0  0  0  0  0  0
    4.2064  -10.3242   18.3302 C   0  0  0  0  0  0  0  0  0  0  0  0
    9.6599   -4.1551   16.4796 N   0  0  0  0  0  0  0  0  0  0  0  0
    7.0644   -6.4612   15.7375 N   0  0  0  0  0  0  0  0  0  0  0  0
    5.3549   -9.6322   18.3190 C   0  0  0  0  0  0  0  0  0  0  0  0
   10.3704   -4.9638   18.6510 C   0  0  0  0  0  0  0  0  0  0  0  0
    5.5935   -8.6419   17.4234 C   0  0  0  0  0  0  0  0  0  0  0  0
   13.0726   -4.6648   23.3394 O   0  0  0  0  0  0  0  0  0  0  0  0
    8.5955   -6.0705   17.3996 C   0  0  0  0  0  0  0  0  0  0  0  0
    4.6223   -8.3832   16.5030 C   0  0  0  0  0  0  0  0  0  0  0  0
   12.4690   -5.2624   19.9024 C   0  0  0  0  0  0  0  0  0  0  0  0
    3.2548   -9.9919   17.4189 C   0  0  0  0  0  0  0  0  0  0  0  0
   12.4767   -4.7393   22.1790 C   0  0  0  0  0  0  0  0  0  0  0  0
    7.8593   -5.3772   15.3569 N   0  0  0  0  0  0  0  0  0  0  0  0
    7.4412   -6.9038   16.9283 C   0  0  0  0  0  0  0  0  0  0  0  0
  1 21  4  0
  1 23  4  0
  2  5  1  0
  2 13  4  0
  2 16  4  0
  3  6  4  0
  3  7  4  0
  4 13  4  0
  4 19  4  0
  4 24  4  0
  6 23  4  0
  7 16  1  0
  7 21  4  0
  8 18  1  0
  9 20  4  0
  9 22  4  0
 10 17  1  0
 10 25  1  0
 11 16  4  0
 11 19  4  0
 12 15  4  0
 12 22  4  0
 14 24  4  0
 14 25  4  0
 15 17  4  0
 17 20  4  0
 18 23  1  0
 19 25  4  0
M  END
$$$$

 Created by Python create_sdf_string function

 25 28  0  0  0  0  0  0  0  0999 V2000
   13.1533   -5.2399   21.0682 C   0  0  0  0  0  0  0  0  0  0  0  0
   10.4729   -4.0295   17.6135 C   0  0  0  0  0  0  0  0  0  0  0  0
   10.4789   -4.3641   20.9564 C   0  0  0  0  0  0  0  0  0  0  0  0
    8.7421   -5.1412   16.3650 C   0  0  0  0  0  0  0  0  0  0  0  0
   11.4353   -2.9204   17.8044 C   0  0  0  0  0  0  0  0  0  0  0  0
   11.1529   -4.3028   22.1277 C   0  0  0  0  0  0  0  0  0  0  0  0
   11.1290   -4.8502   19.8052 C   0  0  0  0  0  0  0  0  0  0  0  0
   12.4329   -4.2159   24.4224 C   0  0  0  0  0  0  0  0  0  0  0  0
    3.4740   -9.0387   16.5022 C   0  0  0  0  0  0  0  0  0  0  0  0
    6.8384   -7.9290   17.5282 N   0  0  0  0  0  0  0  0  0  0  0  0
    9.4126   -5.9853   18.4899 C   0  0  0  0  0  0  0  0  0  0  0  0
    4.2064  -10.3242   18.3302 C   0  0  0  0  0  0  0  0  0  0  0  0
    9.6599   -4.1551   16.4796 N   0  0  0  0  0  0  0  0  0  0  0  0
    7.0644   -6.4612   15.7375 N   0  0  0  0  0  0  0  0  0  0  0  0
    5.3549   -9.6322   18.3190 C   0  0  0  0  0  0  0  0  0  0  0  0
   10.3704   -4.9638   18.6510 C   0  0  0  0  0  0  0  0  0  0  0  0
    5.5935   -8.6419   17.4234 C   0  0  0  0  0  0  0  0  0  0  0  0
   13.0726   -4.6648   23.3394 O   0  0  0  0  0  0  0  0  0  0  0  0
    8.5955   -6.0705   17.3996 C   0  0  0  0  0  0  0  0  0  0  0  0
    4.6223   -8.3832   16.5030 C   0  0  0  0  0  0  0  0  0  0  0  0
   12.4690   -5.2624   19.9024 C   0  0  0  0  0  0  0  0  0  0  0  0
    3.2548   -9.9919   17.4189 C   0  0  0  0  0  0  0  0  0  0  0  0
   12.4767   -4.7393   22.1790 C   0  0  0  0  0  0  0  0  0  0  0  0
    7.8593   -5.3772   15.3569 N   0  0  0  0  0  0  0  0  0  0  0  0
    7.4412   -6.9038   16.9283 C   0  0  0  0  0  0  0  0  0  0  0  0
  1 21  4  0
  1 23  4  0
  2  5  1  0
  2 13  4  0
  2 16  4  0
  3  6  4  0
  3  7  4  0
  4 13  4  0
  4 19  4  0
  4 24  4  0
  6 23  4  0
  7 16  1  0
  7 21  4  0
  8 18  1  0
  9 20  4  0
  9 22  4  0
 10 17  1  0
 10 25  1  0
 11 16  4  0
 11 19  4  0
 12 15  4  0
 12 22  4  0
 14 24  4  0
 14 25  4  0
 15 17  4  0
 17 20  4  0
 18 23  1  0
 19 25  4  0
M  END
$$$$

 Created by Python create_sdf_string function

 25 28  0  0  0  0  0  0  0  0999 V2000
   13.1533   -5.2399   21.0682 C   0  0  0  0  0  0  0  0  0  0  0  0
   10.4729   -4.0295   17.6135 C   0  0  0  0  0  0  0  0  0  0  0  0
   10.4789   -4.3641   20.9564 C   0  0  0  0  0  0  0  0  0  0  0  0
    8.7421   -5.1412   16.3650 C   0  0  0  0  0  0  0  0  0  0  0  0
   11.4353   -2.9204   17.8044 C   0  0  0  0  0  0  0  0  0  0  0  0
   11.1529   -4.3028   22.1277 C   0  0  0  0  0  0  0  0  0  0  0  0
   11.1290   -4.8502   19.8052 C   0  0  0  0  0  0  0  0  0  0  0  0
   12.4329   -4.2159   24.4224 C   0  0  0  0  0  0  0  0  0  0  0  0
    3.4740   -9.0387   16.5022 C   0  0  0  0  0  0  0  0  0  0  0  0
    6.8384   -7.9290   17.5282 N   0  0  0  0  0  0  0  0  0  0  0  0
    9.4126   -5.9853   18.4899 C   0  0  0  0  0  0  0  0  0  0  0  0
    4.2064  -10.3242   18.3302 C   0  0  0  0  0  0  0  0  0  0  0  0
    9.6599   -4.1551   16.4796 N   0  0  0  0  0  0  0  0  0  0  0  0
    7.0644   -6.4612   15.7375 N   0  0  0  0  0  0  0  0  0  0  0  0
    5.3549   -9.6322   18.3190 C   0  0  0  0  0  0  0  0  0  0  0  0
   10.3704   -4.9638   18.6510 C   0  0  0  0  0  0  0  0  0  0  0  0
    5.5935   -8.6419   17.4234 C   0  0  0  0  0  0  0  0  0  0  0  0
   13.0726   -4.6648   23.3394 O   0  0  0  0  0  0  0  0  0  0  0  0
    8.5955   -6.0705   17.3996 C   0  0  0  0  0  0  0  0  0  0  0  0
    4.6223   -8.3832   16.5030 C   0  0  0  0  0  0  0  0  0  0  0  0
   12.4690   -5.2624   19.9024 C   0  0  0  0  0  0  0  0  0  0  0  0
    3.2548   -9.9919   17.4189 C   0  0  0  0  0  0  0  0  0  0  0  0
   12.4767   -4.7393   22.1790 C   0  0  0  0  0  0  0  0  0  0  0  0
    7.8593   -5.3772   15.3569 N   0  0  0  0  0  0  0  0  0  0  0  0
    7.4412   -6.9038   16.9283 C   0  0  0  0  0  0  0  0  0  0  0  0
  1 21  4  0
  1 23  4  0
  2  5  1  0
  2 13  4  0
  2 16  4  0
  3  6  4  0
  3  7  4  0
  4 13  4  0
  4 19  4  0
  4 24  4  0
  6 23  4  0
  7 16  1  0
  7 21  4  0
  8 18  1  0
  9 20  4  0
  9 22  4  0
 10 17  1  0
 10 25  1  0
 11 16  4  0
 11 19  4  0
 12 15  4  0
 12 22  4  0
 14 24  4  0
 14 25  4  0
 15 17  4  0
 17 20  4  0
 18 23  1  0
 19 25  4  0
M  END
$$$$

 Created by Python create_sdf_string function

 25 28  0  0  0  0  0  0  0  0999 V2000
   13.1533   -5.2399   21.0682 C   0  0  0  0  0  0  0  0  0  0  0  0
   10.4729   -4.0295   17.6135 C   0  0  0  0  0  0  0  0  0  0  0  0
   10.4789   -4.3641   20.9564 C   0  0  0  0  0  0  0  0  0  0  0  0
    8.7421   -5.1412   16.3650 C   0  0  0  0  0  0  0  0  0  0  0  0
   11.4353   -2.9204   17.8044 C   0  0  0  0  0  0  0  0  0  0  0  0
   11.1529   -4.3028   22.1277 C   0  0  0  0  0  0  0  0  0  0  0  0
   11.1290   -4.8502   19.8052 C   0  0  0  0  0  0  0  0  0  0  0  0
   12.4329   -4.2159   24.4224 C   0  0  0  0  0  0  0  0  0  0  0  0
    3.4740   -9.0387   16.5022 C   0  0  0  0  0  0  0  0  0  0  0  0
    6.8384   -7.9290   17.5282 N   0  0  0  0  0  0  0  0  0  0  0  0
    9.4126   -5.9853   18.4899 C   0  0  0  0  0  0  0  0  0  0  0  0
    4.2064  -10.3242   18.3302 C   0  0  0  0  0  0  0  0  0  0  0  0
    9.6599   -4.1551   16.4796 N   0  0  0  0  0  0  0  0  0  0  0  0
    7.0644   -6.4612   15.7375 N   0  0  0  0  0  0  0  0  0  0  0  0
    5.3549   -9.6322   18.3190 C   0  0  0  0  0  0  0  0  0  0  0  0
   10.3704   -4.9638   18.6510 C   0  0  0  0  0  0  0  0  0  0  0  0
    5.5935   -8.6419   17.4234 C   0  0  0  0  0  0  0  0  0  0  0  0
   13.0726   -4.6648   23.3394 O   0  0  0  0  0  0  0  0  0  0  0  0
    8.5955   -6.0705   17.3996 C   0  0  0  0  0  0  0  0  0  0  0  0
    4.6223   -8.3832   16.5030 C   0  0  0  0  0  0  0  0  0  0  0  0
   12.4690   -5.2624   19.9024 C   0  0  0  0  0  0  0  0  0  0  0  0
    3.2548   -9.9919   17.4189 C   0  0  0  0  0  0  0  0  0  0  0  0
   12.4767   -4.7393   22.1790 C   0  0  0  0  0  0  0  0  0  0  0  0
    7.8593   -5.3772   15.3569 N   0  0  0  0  0  0  0  0  0  0  0  0
    7.4412   -6.9038   16.9283 C   0  0  0  0  0  0  0  0  0  0  0  0
  1 21  4  0
  1 23  4  0
  2  5  1  0
  2 13  4  0
  2 16  4  0
  3  6  4  0
  3  7  4  0
  4 13  4  0
  4 19  4  0
  4 24  4  0
  6 23  4  0
  7 16  1  0
  7 21  4  0
  8 18  1  0
  9 20  4  0
  9 22  4  0
 10 17  1  0
 10 25  1  0
 11 16  4  0
 11 19  4  0
 12 15  4  0
 12 22  4  0
 14 24  4  0
 14 25  4  0
 15 17  4  0
 17 20  4  0
 18 23  1  0
 19 25  4  0
M  END
$$$$

 Created by Python create_sdf_string function

 25 28  0  0  0  0  0  0  0  0999 V2000
   13.1533   -5.2399   21.0682 C   0  0  0  0  0  0  0  0  0  0  0  0
   10.4729   -4.0295   17.6135 C   0  0  0  0  0  0  0  0  0  0  0  0
   10.4789   -4.3641   20.9564 C   0  0  0  0  0  0  0  0  0  0  0  0
    8.7421   -5.1412   16.3650 C   0  0  0  0  0  0  0  0  0  0  0  0
   11.4353   -2.9204   17.8044 C   0  0  0  0  0  0  0  0  0  0  0  0
   11.1529   -4.3028   22.1277 C   0  0  0  0  0  0  0  0  0  0  0  0
   11.1290   -4.8502   19.8052 C   0  0  0  0  0  0  0  0  0  0  0  0
   12.4329   -4.2159   24.4224 C   0  0  0  0  0  0  0  0  0  0  0  0
    3.4740   -9.0387   16.5022 C   0  0  0  0  0  0  0  0  0  0  0  0
    6.8384   -7.9290   17.5282 N   0  0  0  0  0  0  0  0  0  0  0  0
    9.4126   -5.9853   18.4899 C   0  0  0  0  0  0  0  0  0  0  0  0
    4.2064  -10.3242   18.3302 C   0  0  0  0  0  0  0  0  0  0  0  0
    9.6599   -4.1551   16.4796 N   0  0  0  0  0  0  0  0  0  0  0  0
    7.0644   -6.4612   15.7375 N   0  0  0  0  0  0  0  0  0  0  0  0
    5.3549   -9.6322   18.3190 C   0  0  0  0  0  0  0  0  0  0  0  0
   10.3704   -4.9638   18.6510 C   0  0  0  0  0  0  0  0  0  0  0  0
    5.5935   -8.6419   17.4234 C   0  0  0  0  0  0  0  0  0  0  0  0
   13.0726   -4.6648   23.3394 O   0  0  0  0  0  0  0  0  0  0  0  0
    8.5955   -6.0705   17.3996 C   0  0  0  0  0  0  0  0  0  0  0  0
    4.6223   -8.3832   16.5030 C   0  0  0  0  0  0  0  0  0  0  0  0
   12.4690   -5.2624   19.9024 C   0  0  0  0  0  0  0  0  0  0  0  0
    3.2548   -9.9919   17.4189 C   0  0  0  0  0  0  0  0  0  0  0  0
   12.4767   -4.7393   22.1790 C   0  0  0  0  0  0  0  0  0  0  0  0
    7.8593   -5.3772   15.3569 N   0  0  0  0  0  0  0  0  0  0  0  0
    7.4412   -6.9038   16.9283 C   0  0  0  0  0  0  0  0  0  0  0  0
  1 21  4  0
  1 23  4  0
  2  5  1  0
  2 13  4  0
  2 16  4  0
  3  6  4  0
  3  7  4  0
  4 13  4  0
  4 19  4  0
  4 24  4  0
  6 23  4  0
  7 16  1  0
  7 21  4  0
  8 18  1  0
  9 20  4  0
  9 22  4  0
 10 17  1  0
 10 25  1  0
 11 16  4  0
 11 19  4  0
 12 15  4  0
 12 22  4  0
 14 24  4  0
 14 25  4  0
 15 17  4  0
 17 20  4  0
 18 23  1  0
 19 25  4  0
M  END
$$$$

 Created by Python create_sdf_string function

 25 28  0  0  0  0  0  0  0  0999 V2000
   13.1533   -5.2399   21.0682 C   0  0  0  0  0  0  0  0  0  0  0  0
   10.4729   -4.0295   17.6135 C   0  0  0  0  0  0  0  0  0  0  0  0
   10.4789   -4.3641   20.9564 C   0  0  0  0  0  0  0  0  0  0  0  0
    8.7421   -5.1412   16.3650 C   0  0  0  0  0  0  0  0  0  0  0  0
   11.4353   -2.9204   17.8044 C   0  0  0  0  0  0  0  0  0  0  0  0
   11.1529   -4.3028   22.1277 C   0  0  0  0  0  0  0  0  0  0  0  0
   11.1290   -4.8502   19.8052 C   0  0  0  0  0  0  0  0  0  0  0  0
   12.4329   -4.2159   24.4224 C   0  0  0  0  0  0  0  0  0  0  0  0
    3.4740   -9.0387   16.5022 C   0  0  0  0  0  0  0  0  0  0  0  0
    6.8384   -7.9290   17.5282 N   0  0  0  0  0  0  0  0  0  0  0  0
    9.4126   -5.9853   18.4899 C   0  0  0  0  0  0  0  0  0  0  0  0
    4.2064  -10.3242   18.3302 C   0  0  0  0  0  0  0  0  0  0  0  0
    9.6599   -4.1551   16.4796 N   0  0  0  0  0  0  0  0  0  0  0  0
    7.0644   -6.4612   15.7375 N   0  0  0  0  0  0  0  0  0  0  0  0
    5.3549   -9.6322   18.3190 C   0  0  0  0  0  0  0  0  0  0  0  0
   10.3704   -4.9638   18.6510 C   0  0  0  0  0  0  0  0  0  0  0  0
    5.5935   -8.6419   17.4234 C   0  0  0  0  0  0  0  0  0  0  0  0
   13.0726   -4.6648   23.3394 O   0  0  0  0  0  0  0  0  0  0  0  0
    8.5955   -6.0705   17.3996 C   0  0  0  0  0  0  0  0  0  0  0  0
    4.6223   -8.3832   16.5030 C   0  0  0  0  0  0  0  0  0  0  0  0
   12.4690   -5.2624   19.9024 C   0  0  0  0  0  0  0  0  0  0  0  0
    3.2548   -9.9919   17.4189 C   0  0  0  0  0  0  0  0  0  0  0  0
   12.4767   -4.7393   22.1790 C   0  0  0  0  0  0  0  0  0  0  0  0
    7.8593   -5.3772   15.3569 N   0  0  0  0  0  0  0  0  0  0  0  0
    7.4412   -6.9038   16.9283 C   0  0  0  0  0  0  0  0  0  0  0  0
  1 21  4  0
  1 23  4  0
  2  5  1  0
  2 13  4  0
  2 16  4  0
  3  6  4  0
  3  7  4  0
  4 13  4  0
  4 19  4  0
  4 24  4  0
  6 23  4  0
  7 16  1  0
  7 21  4  0
  8 18  1  0
  9 20  4  0
  9 22  4  0
 10 17  1  0
 10 25  1  0
 11 16  4  0
 11 19  4  0
 12 15  4  0
 12 22  4  0
 14 24  4  0
 14 25  4  0
 15 17  4  0
 17 20  4  0
 18 23  1  0
 19 25  4  0
M  END
$$$$

 Created by Python create_sdf_string function

 25 28  0  0  0  0  0  0  0  0999 V2000
   13.1533   -5.2399   21.0682 C   0  0  0  0  0  0  0  0  0  0  0  0
   10.4729   -4.0295   17.6135 C   0  0  0  0  0  0  0  0  0  0  0  0
   10.4789   -4.3641   20.9564 C   0  0  0  0  0  0  0  0  0  0  0  0
    8.7421   -5.1412   16.3650 C   0  0  0  0  0  0  0  0  0  0  0  0
   11.4353   -2.9204   17.8044 C   0  0  0  0  0  0  0  0  0  0  0  0
   11.1529   -4.3028   22.1277 C   0  0  0  0  0  0  0  0  0  0  0  0
   11.1290   -4.8502   19.8052 C   0  0  0  0  0  0  0  0  0  0  0  0
   12.4329   -4.2159   24.4224 C   0  0  0  0  0  0  0  0  0  0  0  0
    3.4740   -9.0387   16.5022 C   0  0  0  0  0  0  0  0  0  0  0  0
    6.8384   -7.9290   17.5282 N   0  0  0  0  0  0  0  0  0  0  0  0
    9.4126   -5.9853   18.4899 C   0  0  0  0  0  0  0  0  0  0  0  0
    4.2064  -10.3242   18.3302 C   0  0  0  0  0  0  0  0  0  0  0  0
    9.6599   -4.1551   16.4796 N   0  0  0  0  0  0  0  0  0  0  0  0
    7.0644   -6.4612   15.7375 N   0  0  0  0  0  0  0  0  0  0  0  0
    5.3549   -9.6322   18.3190 C   0  0  0  0  0  0  0  0  0  0  0  0
   10.3704   -4.9638   18.6510 C   0  0  0  0  0  0  0  0  0  0  0  0
    5.5935   -8.6419   17.4234 C   0  0  0  0  0  0  0  0  0  0  0  0
   13.0726   -4.6648   23.3394 O   0  0  0  0  0  0  0  0  0  0  0  0
    8.5955   -6.0705   17.3996 C   0  0  0  0  0  0  0  0  0  0  0  0
    4.6223   -8.3832   16.5030 C   0  0  0  0  0  0  0  0  0  0  0  0
   12.4690   -5.2624   19.9024 C   0  0  0  0  0  0  0  0  0  0  0  0
    3.2548   -9.9919   17.4189 C   0  0  0  0  0  0  0  0  0  0  0  0
   12.4767   -4.7393   22.1790 C   0  0  0  0  0  0  0  0  0  0  0  0
    7.8593   -5.3772   15.3569 N   0  0  0  0  0  0  0  0  0  0  0  0
    7.4412   -6.9038   16.9283 C   0  0  0  0  0  0  0  0  0  0  0  0
  1 21  4  0
  1 23  4  0
  2  5  1  0
  2 13  4  0
  2 16  4  0
  3  6  4  0
  3  7  4  0
  4 13  4  0
  4 19  4  0
  4 24  4  0
  6 23  4  0
  7 16  1  0
  7 21  4  0
  8 18  1  0
  9 20  4  0
  9 22  4  0
 10 17  1  0
 10 25  1  0
 11 16  4  0
 11 19  4  0
 12 15  4  0
 12 22  4  0
 14 24  4  0
 14 25  4  0
 15 17  4  0
 17 20  4  0
 18 23  1  0
 19 25  4  0
M  END
$$$$

 Created by Python create_sdf_string function

 25 28  0  0  0  0  0  0  0  0999 V2000
   13.1533   -5.2399   21.0682 C   0  0  0  0  0  0  0  0  0  0  0  0
   10.4729   -4.0295   17.6135 C   0  0  0  0  0  0  0  0  0  0  0  0
   10.4789   -4.3641   20.9564 C   0  0  0  0  0  0  0  0  0  0  0  0
    8.7421   -5.1412   16.3650 C   0  0  0  0  0  0  0  0  0  0  0  0
   11.4353   -2.9204   17.8044 C   0  0  0  0  0  0  0  0  0  0  0  0
   11.1529   -4.3028   22.1277 C   0  0  0  0  0  0  0  0  0  0  0  0
   11.1290   -4.8502   19.8052 C   0  0  0  0  0  0  0  0  0  0  0  0
   12.4329   -4.2159   24.4224 C   0  0  0  0  0  0  0  0  0  0  0  0
    3.4740   -9.0387   16.5022 C   0  0  0  0  0  0  0  0  0  0  0  0
    6.8384   -7.9290   17.5282 N   0  0  0  0  0  0  0  0  0  0  0  0
    9.4126   -5.9853   18.4899 C   0  0  0  0  0  0  0  0  0  0  0  0
    4.2064  -10.3242   18.3302 C   0  0  0  0  0  0  0  0  0  0  0  0
    9.6599   -4.1551   16.4796 N   0  0  0  0  0  0  0  0  0  0  0  0
    7.0644   -6.4612   15.7375 N   0  0  0  0  0  0  0  0  0  0  0  0
    5.3549   -9.6322   18.3190 C   0  0  0  0  0  0  0  0  0  0  0  0
   10.3704   -4.9638   18.6510 C   0  0  0  0  0  0  0  0  0  0  0  0
    5.5935   -8.6419   17.4234 C   0  0  0  0  0  0  0  0  0  0  0  0
   13.0726   -4.6648   23.3394 O   0  0  0  0  0  0  0  0  0  0  0  0
    8.5955   -6.0705   17.3996 C   0  0  0  0  0  0  0  0  0  0  0  0
    4.6223   -8.3832   16.5030 C   0  0  0  0  0  0  0  0  0  0  0  0
   12.4690   -5.2624   19.9024 C   0  0  0  0  0  0  0  0  0  0  0  0
    3.2548   -9.9919   17.4189 C   0  0  0  0  0  0  0  0  0  0  0  0
   12.4767   -4.7393   22.1790 C   0  0  0  0  0  0  0  0  0  0  0  0
    7.8593   -5.3772   15.3569 N   0  0  0  0  0  0  0  0  0  0  0  0
    7.4412   -6.9038   16.9283 C   0  0  0  0  0  0  0  0  0  0  0  0
  1 21  4  0
  1 23  4  0
  2  5  1  0
  2 13  4  0
  2 16  4  0
  3  6  4  0
  3  7  4  0
  4 13  4  0
  4 19  4  0
  4 24  4  0
  6 23  4  0
  7 16  1  0
  7 21  4  0
  8 18  1  0
  9 20  4  0
  9 22  4  0
 10 17  1  0
 10 25  1  0
 11 16  4  0
 11 19  4  0
 12 15  4  0
 12 22  4  0
 14 24  4  0
 14 25  4  0
 15 17  4  0
 17 20  4  0
 18 23  1  0
 19 25  4  0
M  END
$$$$

 Created by Python create_sdf_string function

 25 28  0  0  0  0  0  0  0  0999 V2000
   13.1533   -5.2399   21.0682 C   0  0  0  0  0  0  0  0  0  0  0  0
   10.4729   -4.0295   17.6135 C   0  0  0  0  0  0  0  0  0  0  0  0
   10.4789   -4.3641   20.9564 C   0  0  0  0  0  0  0  0  0  0  0  0
    8.7421   -5.1412   16.3650 C   0  0  0  0  0  0  0  0  0  0  0  0
   11.4353   -2.9204   17.8044 C   0  0  0  0  0  0  0  0  0  0  0  0
   11.1529   -4.3028   22.1277 C   0  0  0  0  0  0  0  0  0  0  0  0
   11.1290   -4.8502   19.8052 C   0  0  0  0  0  0  0  0  0  0  0  0
   12.4329   -4.2159   24.4224 C   0  0  0  0  0  0  0  0  0  0  0  0
    3.4740   -9.0387   16.5022 C   0  0  0  0  0  0  0  0  0  0  0  0
    6.8384   -7.9290   17.5282 N   0  0  0  0  0  0  0  0  0  0  0  0
    9.4126   -5.9853   18.4899 C   0  0  0  0  0  0  0  0  0  0  0  0
    4.2064  -10.3242   18.3302 C   0  0  0  0  0  0  0  0  0  0  0  0
    9.6599   -4.1551   16.4796 N   0  0  0  0  0  0  0  0  0  0  0  0
    7.0644   -6.4612   15.7375 N   0  0  0  0  0  0  0  0  0  0  0  0
    5.3549   -9.6322   18.3190 C   0  0  0  0  0  0  0  0  0  0  0  0
   10.3704   -4.9638   18.6510 C   0  0  0  0  0  0  0  0  0  0  0  0
    5.5935   -8.6419   17.4234 C   0  0  0  0  0  0  0  0  0  0  0  0
   13.0726   -4.6648   23.3394 O   0  0  0  0  0  0  0  0  0  0  0  0
    8.5955   -6.0705   17.3996 C   0  0  0  0  0  0  0  0  0  0  0  0
    4.6223   -8.3832   16.5030 C   0  0  0  0  0  0  0  0  0  0  0  0
   12.4690   -5.2624   19.9024 C   0  0  0  0  0  0  0  0  0  0  0  0
    3.2548   -9.9919   17.4189 C   0  0  0  0  0  0  0  0  0  0  0  0
   12.4767   -4.7393   22.1790 C   0  0  0  0  0  0  0  0  0  0  0  0
    7.8593   -5.3772   15.3569 N   0  0  0  0  0  0  0  0  0  0  0  0
    7.4412   -6.9038   16.9283 C   0  0  0  0  0  0  0  0  0  0  0  0
  1 21  4  0
  1 23  4  0
  2  5  1  0
  2 13  4  0
  2 16  4  0
  3  6  4  0
  3  7  4  0
  4 13  4  0
  4 19  4  0
  4 24  4  0
  6 23  4  0
  7 16  1  0
  7 21  4  0
  8 18  1  0
  9 20  4  0
  9 22  4  0
 10 17  1  0
 10 25  1  0
 11 16  4  0
 11 19  4  0
 12 15  4  0
 12 22  4  0
 14 24  4  0
 14 25  4  0
 15 17  4  0
 17 20  4  0
 18 23  1  0
 19 25  4  0
M  END
$$$$

 Created by Python create_sdf_string function

 25 28  0  0  0  0  0  0  0  0999 V2000
   13.1533   -5.2399   21.0682 C   0  0  0  0  0  0  0  0  0  0  0  0
   10.4729   -4.0295   17.6135 C   0  0  0  0  0  0  0  0  0  0  0  0
   10.4789   -4.3641   20.9564 C   0  0  0  0  0  0  0  0  0  0  0  0
    8.7421   -5.1412   16.3650 C   0  0  0  0  0  0  0  0  0  0  0  0
   11.4353   -2.9204   17.8044 C   0  0  0  0  0  0  0  0  0  0  0  0
   11.1529   -4.3028   22.1277 C   0  0  0  0  0  0  0  0  0  0  0  0
   11.1290   -4.8502   19.8052 C   0  0  0  0  0  0  0  0  0  0  0  0
   12.4329   -4.2159   24.4224 C   0  0  0  0  0  0  0  0  0  0  0  0
    3.4740   -9.0387   16.5022 C   0  0  0  0  0  0  0  0  0  0  0  0
    6.8384   -7.9290   17.5282 N   0  0  0  0  0  0  0  0  0  0  0  0
    9.4126   -5.9853   18.4899 C   0  0  0  0  0  0  0  0  0  0  0  0
    4.2064  -10.3242   18.3302 C   0  0  0  0  0  0  0  0  0  0  0  0
    9.6599   -4.1551   16.4796 N   0  0  0  0  0  0  0  0  0  0  0  0
    7.0644   -6.4612   15.7375 N   0  0  0  0  0  0  0  0  0  0  0  0
    5.3549   -9.6322   18.3190 C   0  0  0  0  0  0  0  0  0  0  0  0
   10.3704   -4.9638   18.6510 C   0  0  0  0  0  0  0  0  0  0  0  0
    5.5935   -8.6419   17.4234 C   0  0  0  0  0  0  0  0  0  0  0  0
   13.0726   -4.6648   23.3394 O   0  0  0  0  0  0  0  0  0  0  0  0
    8.5955   -6.0705   17.3996 C   0  0  0  0  0  0  0  0  0  0  0  0
    4.6223   -8.3832   16.5030 C   0  0  0  0  0  0  0  0  0  0  0  0
   12.4690   -5.2624   19.9024 C   0  0  0  0  0  0  0  0  0  0  0  0
    3.2548   -9.9919   17.4189 C   0  0  0  0  0  0  0  0  0  0  0  0
   12.4767   -4.7393   22.1790 C   0  0  0  0  0  0  0  0  0  0  0  0
    7.8593   -5.3772   15.3569 N   0  0  0  0  0  0  0  0  0  0  0  0
    7.4412   -6.9038   16.9283 C   0  0  0  0  0  0  0  0  0  0  0  0
  1 21  4  0
  1 23  4  0
  2  5  1  0
  2 13  4  0
  2 16  4  0
  3  6  4  0
  3  7  4  0
  4 13  4  0
  4 19  4  0
  4 24  4  0
  6 23  4  0
  7 16  1  0
  7 21  4  0
  8 18  1  0
  9 20  4  0
  9 22  4  0
 10 17  1  0
 10 25  1  0
 11 16  4  0
 11 19  4  0
 12 15  4  0
 12 22  4  0
 14 24  4  0
 14 25  4  0
 15 17  4  0
 17 20  4  0
 18 23  1  0
 19 25  4  0
M  END
$$$$

 Created by Python create_sdf_string function

 25 28  0  0  0  0  0  0  0  0999 V2000
   13.1533   -5.2399   21.0682 C   0  0  0  0  0  0  0  0  0  0  0  0
   10.4729   -4.0295   17.6135 C   0  0  0  0  0  0  0  0  0  0  0  0
   10.4789   -4.3641   20.9564 C   0  0  0  0  0  0  0  0  0  0  0  0
    8.7421   -5.1412   16.3650 C   0  0  0  0  0  0  0  0  0  0  0  0
   11.4353   -2.9204   17.8044 C   0  0  0  0  0  0  0  0  0  0  0  0
   11.1529   -4.3028   22.1277 C   0  0  0  0  0  0  0  0  0  0  0  0
   11.1290   -4.8502   19.8052 C   0  0  0  0  0  0  0  0  0  0  0  0
   12.4329   -4.2159   24.4224 C   0  0  0  0  0  0  0  0  0  0  0  0
    3.4740   -9.0387   16.5022 C   0  0  0  0  0  0  0  0  0  0  0  0
    6.8384   -7.9290   17.5282 N   0  0  0  0  0  0  0  0  0  0  0  0
    9.4126   -5.9853   18.4899 C   0  0  0  0  0  0  0  0  0  0  0  0
    4.2064  -10.3242   18.3302 C   0  0  0  0  0  0  0  0  0  0  0  0
    9.6599   -4.1551   16.4796 N   0  0  0  0  0  0  0  0  0  0  0  0
    7.0644   -6.4612   15.7375 N   0  0  0  0  0  0  0  0  0  0  0  0
    5.3549   -9.6322   18.3190 C   0  0  0  0  0  0  0  0  0  0  0  0
   10.3704   -4.9638   18.6510 C   0  0  0  0  0  0  0  0  0  0  0  0
    5.5935   -8.6419   17.4234 C   0  0  0  0  0  0  0  0  0  0  0  0
   13.0726   -4.6648   23.3394 O   0  0  0  0  0  0  0  0  0  0  0  0
    8.5955   -6.0705   17.3996 C   0  0  0  0  0  0  0  0  0  0  0  0
    4.6223   -8.3832   16.5030 C   0  0  0  0  0  0  0  0  0  0  0  0
   12.4690   -5.2624   19.9024 C   0  0  0  0  0  0  0  0  0  0  0  0
    3.2548   -9.9919   17.4189 C   0  0  0  0  0  0  0  0  0  0  0  0
   12.4767   -4.7393   22.1790 C   0  0  0  0  0  0  0  0  0  0  0  0
    7.8593   -5.3772   15.3569 N   0  0  0  0  0  0  0  0  0  0  0  0
    7.4412   -6.9038   16.9283 C   0  0  0  0  0  0  0  0  0  0  0  0
  1 21  4  0
  1 23  4  0
  2  5  1  0
  2 13  4  0
  2 16  4  0
  3  6  4  0
  3  7  4  0
  4 13  4  0
  4 19  4  0
  4 24  4  0
  6 23  4  0
  7 16  1  0
  7 21  4  0
  8 18  1  0
  9 20  4  0
  9 22  4  0
 10 17  1  0
 10 25  1  0
 11 16  4  0
 11 19  4  0
 12 15  4  0
 12 22  4  0
 14 24  4  0
 14 25  4  0
 15 17  4  0
 17 20  4  0
 18 23  1  0
 19 25  4  0
M  END
$$$$

 Created by Python create_sdf_string function

 25 28  0  0  0  0  0  0  0  0999 V2000
   13.1533   -5.2399   21.0682 C   0  0  0  0  0  0  0  0  0  0  0  0
   10.4729   -4.0295   17.6135 C   0  0  0  0  0  0  0  0  0  0  0  0
   10.4789   -4.3641   20.9564 C   0  0  0  0  0  0  0  0  0  0  0  0
    8.7421   -5.1412   16.3650 C   0  0  0  0  0  0  0  0  0  0  0  0
   11.4353   -2.9204   17.8044 C   0  0  0  0  0  0  0  0  0  0  0  0
   11.1529   -4.3028   22.1277 C   0  0  0  0  0  0  0  0  0  0  0  0
   11.1290   -4.8502   19.8052 C   0  0  0  0  0  0  0  0  0  0  0  0
   12.4329   -4.2159   24.4224 C   0  0  0  0  0  0  0  0  0  0  0  0
    3.4740   -9.0387   16.5022 C   0  0  0  0  0  0  0  0  0  0  0  0
    6.8384   -7.9290   17.5282 N   0  0  0  0  0  0  0  0  0  0  0  0
    9.4126   -5.9853   18.4899 C   0  0  0  0  0  0  0  0  0  0  0  0
    4.2064  -10.3242   18.3302 C   0  0  0  0  0  0  0  0  0  0  0  0
    9.6599   -4.1551   16.4796 N   0  0  0  0  0  0  0  0  0  0  0  0
    7.0644   -6.4612   15.7375 N   0  0  0  0  0  0  0  0  0  0  0  0
    5.3549   -9.6322   18.3190 C   0  0  0  0  0  0  0  0  0  0  0  0
   10.3704   -4.9638   18.6510 C   0  0  0  0  0  0  0  0  0  0  0  0
    5.5935   -8.6419   17.4234 C   0  0  0  0  0  0  0  0  0  0  0  0
   13.0726   -4.6648   23.3394 O   0  0  0  0  0  0  0  0  0  0  0  0
    8.5955   -6.0705   17.3996 C   0  0  0  0  0  0  0  0  0  0  0  0
    4.6223   -8.3832   16.5030 C   0  0  0  0  0  0  0  0  0  0  0  0
   12.4690   -5.2624   19.9024 C   0  0  0  0  0  0  0  0  0  0  0  0
    3.2548   -9.9919   17.4189 C   0  0  0  0  0  0  0  0  0  0  0  0
   12.4767   -4.7393   22.1790 C   0  0  0  0  0  0  0  0  0  0  0  0
    7.8593   -5.3772   15.3569 N   0  0  0  0  0  0  0  0  0  0  0  0
    7.4412   -6.9038   16.9283 C   0  0  0  0  0  0  0  0  0  0  0  0
  1 21  4  0
  1 23  4  0
  2  5  1  0
  2 13  4  0
  2 16  4  0
  3  6  4  0
  3  7  4  0
  4 13  4  0
  4 19  4  0
  4 24  4  0
  6 23  4  0
  7 16  1  0
  7 21  4  0
  8 18  1  0
  9 20  4  0
  9 22  4  0
 10 17  1  0
 10 25  1  0
 11 16  4  0
 11 19  4  0
 12 15  4  0
 12 22  4  0
 14 24  4  0
 14 25  4  0
 15 17  4  0
 17 20  4  0
 18 23  1  0
 19 25  4  0
M  END
$$$$

 Created by Python create_sdf_string function

 25 28  0  0  0  0  0  0  0  0999 V2000
   13.1533   -5.2399   21.0682 C   0  0  0  0  0  0  0  0  0  0  0  0
   10.4729   -4.0295   17.6135 C   0  0  0  0  0  0  0  0  0  0  0  0
   10.4789   -4.3641   20.9564 C   0  0  0  0  0  0  0  0  0  0  0  0
    8.7421   -5.1412   16.3650 C   0  0  0  0  0  0  0  0  0  0  0  0
   11.4353   -2.9204   17.8044 C   0  0  0  0  0  0  0  0  0  0  0  0
   11.1529   -4.3028   22.1277 C   0  0  0  0  0  0  0  0  0  0  0  0
   11.1290   -4.8502   19.8052 C   0  0  0  0  0  0  0  0  0  0  0  0
   12.4329   -4.2159   24.4224 C   0  0  0  0  0  0  0  0  0  0  0  0
    3.4740   -9.0387   16.5022 C   0  0  0  0  0  0  0  0  0  0  0  0
    6.8384   -7.9290   17.5282 N   0  0  0  0  0  0  0  0  0  0  0  0
    9.4126   -5.9853   18.4899 C   0  0  0  0  0  0  0  0  0  0  0  0
    4.2064  -10.3242   18.3302 C   0  0  0  0  0  0  0  0  0  0  0  0
    9.6599   -4.1551   16.4796 N   0  0  0  0  0  0  0  0  0  0  0  0
    7.0644   -6.4612   15.7375 N   0  0  0  0  0  0  0  0  0  0  0  0
    5.3549   -9.6322   18.3190 C   0  0  0  0  0  0  0  0  0  0  0  0
   10.3704   -4.9638   18.6510 C   0  0  0  0  0  0  0  0  0  0  0  0
    5.5935   -8.6419   17.4234 C   0  0  0  0  0  0  0  0  0  0  0  0
   13.0726   -4.6648   23.3394 O   0  0  0  0  0  0  0  0  0  0  0  0
    8.5955   -6.0705   17.3996 C   0  0  0  0  0  0  0  0  0  0  0  0
    4.6223   -8.3832   16.5030 C   0  0  0  0  0  0  0  0  0  0  0  0
   12.4690   -5.2624   19.9024 C   0  0  0  0  0  0  0  0  0  0  0  0
    3.2548   -9.9919   17.4189 C   0  0  0  0  0  0  0  0  0  0  0  0
   12.4767   -4.7393   22.1790 C   0  0  0  0  0  0  0  0  0  0  0  0
    7.8593   -5.3772   15.3569 N   0  0  0  0  0  0  0  0  0  0  0  0
    7.4412   -6.9038   16.9283 C   0  0  0  0  0  0  0  0  0  0  0  0
  1 21  4  0
  1 23  4  0
  2  5  1  0
  2 13  4  0
  2 16  4  0
  3  6  4  0
  3  7  4  0
  4 13  4  0
  4 19  4  0
  4 24  4  0
  6 23  4  0
  7 16  1  0
  7 21  4  0
  8 18  1  0
  9 20  4  0
  9 22  4  0
 10 17  1  0
 10 25  1  0
 11 16  4  0
 11 19  4  0
 12 15  4  0
 12 22  4  0
 14 24  4  0
 14 25  4  0
 15 17  4  0
 17 20  4  0
 18 23  1  0
 19 25  4  0
M  END
$$$$

 Created by Python create_sdf_string function

 25 28  0  0  0  0  0  0  0  0999 V2000
   13.1533   -5.2399   21.0682 C   0  0  0  0  0  0  0  0  0  0  0  0
   10.4729   -4.0295   17.6135 C   0  0  0  0  0  0  0  0  0  0  0  0
   10.4789   -4.3641   20.9564 C   0  0  0  0  0  0  0  0  0  0  0  0
    8.7421   -5.1412   16.3650 C   0  0  0  0  0  0  0  0  0  0  0  0
   11.4353   -2.9204   17.8044 C   0  0  0  0  0  0  0  0  0  0  0  0
   11.1529   -4.3028   22.1277 C   0  0  0  0  0  0  0  0  0  0  0  0
   11.1290   -4.8502   19.8052 C   0  0  0  0  0  0  0  0  0  0  0  0
   12.4329   -4.2159   24.4224 C   0  0  0  0  0  0  0  0  0  0  0  0
    3.4740   -9.0387   16.5022 C   0  0  0  0  0  0  0  0  0  0  0  0
    6.8384   -7.9290   17.5282 N   0  0  0  0  0  0  0  0  0  0  0  0
    9.4126   -5.9853   18.4899 C   0  0  0  0  0  0  0  0  0  0  0  0
    4.2064  -10.3242   18.3302 C   0  0  0  0  0  0  0  0  0  0  0  0
    9.6599   -4.1551   16.4796 N   0  0  0  0  0  0  0  0  0  0  0  0
    7.0644   -6.4612   15.7375 N   0  0  0  0  0  0  0  0  0  0  0  0
    5.3549   -9.6322   18.3190 C   0  0  0  0  0  0  0  0  0  0  0  0
   10.3704   -4.9638   18.6510 C   0  0  0  0  0  0  0  0  0  0  0  0
    5.5935   -8.6419   17.4234 C   0  0  0  0  0  0  0  0  0  0  0  0
   13.0726   -4.6648   23.3394 O   0  0  0  0  0  0  0  0  0  0  0  0
    8.5955   -6.0705   17.3996 C   0  0  0  0  0  0  0  0  0  0  0  0
    4.6223   -8.3832   16.5030 C   0  0  0  0  0  0  0  0  0  0  0  0
   12.4690   -5.2624   19.9024 C   0  0  0  0  0  0  0  0  0  0  0  0
    3.2548   -9.9919   17.4189 C   0  0  0  0  0  0  0  0  0  0  0  0
   12.4767   -4.7393   22.1790 C   0  0  0  0  0  0  0  0  0  0  0  0
    7.8593   -5.3772   15.3569 N   0  0  0  0  0  0  0  0  0  0  0  0
    7.4412   -6.9038   16.9283 C   0  0  0  0  0  0  0  0  0  0  0  0
  1 21  4  0
  1 23  4  0
  2  5  1  0
  2 13  4  0
  2 16  4  0
  3  6  4  0
  3  7  4  0
  4 13  4  0
  4 19  4  0
  4 24  4  0
  6 23  4  0
  7 16  1  0
  7 21  4  0
  8 18  1  0
  9 20  4  0
  9 22  4  0
 10 17  1  0
 10 25  1  0
 11 16  4  0
 11 19  4  0
 12 15  4  0
 12 22  4  0
 14 24  4  0
 14 25  4  0
 15 17  4  0
 17 20  4  0
 18 23  1  0
 19 25  4  0
M  END
$$$$

 Created by Python create_sdf_string function

 25 28  0  0  0  0  0  0  0  0999 V2000
   13.1533   -5.2399   21.0682 C   0  0  0  0  0  0  0  0  0  0  0  0
   10.4729   -4.0295   17.6135 C   0  0  0  0  0  0  0  0  0  0  0  0
   10.4789   -4.3641   20.9564 C   0  0  0  0  0  0  0  0  0  0  0  0
    8.7421   -5.1412   16.3650 C   0  0  0  0  0  0  0  0  0  0  0  0
   11.4353   -2.9204   17.8044 C   0  0  0  0  0  0  0  0  0  0  0  0
   11.1529   -4.3028   22.1277 C   0  0  0  0  0  0  0  0  0  0  0  0
   11.1290   -4.8502   19.8052 C   0  0  0  0  0  0  0  0  0  0  0  0
   12.4329   -4.2159   24.4224 C   0  0  0  0  0  0  0  0  0  0  0  0
    3.4740   -9.0387   16.5022 C   0  0  0  0  0  0  0  0  0  0  0  0
    6.8384   -7.9290   17.5282 N   0  0  0  0  0  0  0  0  0  0  0  0
    9.4126   -5.9853   18.4899 C   0  0  0  0  0  0  0  0  0  0  0  0
    4.2064  -10.3242   18.3302 C   0  0  0  0  0  0  0  0  0  0  0  0
    9.6599   -4.1551   16.4796 N   0  0  0  0  0  0  0  0  0  0  0  0
    7.0644   -6.4612   15.7375 N   0  0  0  0  0  0  0  0  0  0  0  0
    5.3549   -9.6322   18.3190 C   0  0  0  0  0  0  0  0  0  0  0  0
   10.3704   -4.9638   18.6510 C   0  0  0  0  0  0  0  0  0  0  0  0
    5.5935   -8.6419   17.4234 C   0  0  0  0  0  0  0  0  0  0  0  0
   13.0726   -4.6648   23.3394 O   0  0  0  0  0  0  0  0  0  0  0  0
    8.5955   -6.0705   17.3996 C   0  0  0  0  0  0  0  0  0  0  0  0
    4.6223   -8.3832   16.5030 C   0  0  0  0  0  0  0  0  0  0  0  0
   12.4690   -5.2624   19.9024 C   0  0  0  0  0  0  0  0  0  0  0  0
    3.2548   -9.9919   17.4189 C   0  0  0  0  0  0  0  0  0  0  0  0
   12.4767   -4.7393   22.1790 C   0  0  0  0  0  0  0  0  0  0  0  0
    7.8593   -5.3772   15.3569 N   0  0  0  0  0  0  0  0  0  0  0  0
    7.4412   -6.9038   16.9283 C   0  0  0  0  0  0  0  0  0  0  0  0
  1 21  4  0
  1 23  4  0
  2  5  1  0
  2 13  4  0
  2 16  4  0
  3  6  4  0
  3  7  4  0
  4 13  4  0
  4 19  4  0
  4 24  4  0
  6 23  4  0
  7 16  1  0
  7 21  4  0
  8 18  1  0
  9 20  4  0
  9 22  4  0
 10 17  1  0
 10 25  1  0
 11 16  4  0
 11 19  4  0
 12 15  4  0
 12 22  4  0
 14 24  4  0
 14 25  4  0
 15 17  4  0
 17 20  4  0
 18 23  1  0
 19 25  4  0
M  END
$$$$

 Created by Python create_sdf_string function

 25 28  0  0  0  0  0  0  0  0999 V2000
   13.1533   -5.2399   21.0682 C   0  0  0  0  0  0  0  0  0  0  0  0
   10.4729   -4.0295   17.6135 C   0  0  0  0  0  0  0  0  0  0  0  0
   10.4789   -4.3641   20.9564 C   0  0  0  0  0  0  0  0  0  0  0  0
    8.7421   -5.1412   16.3650 C   0  0  0  0  0  0  0  0  0  0  0  0
   11.4353   -2.9204   17.8044 C   0  0  0  0  0  0  0  0  0  0  0  0
   11.1529   -4.3028   22.1277 C   0  0  0  0  0  0  0  0  0  0  0  0
   11.1290   -4.8502   19.8052 C   0  0  0  0  0  0  0  0  0  0  0  0
   12.4329   -4.2159   24.4224 C   0  0  0  0  0  0  0  0  0  0  0  0
    3.4740   -9.0387   16.5022 C   0  0  0  0  0  0  0  0  0  0  0  0
    6.8384   -7.9290   17.5282 N   0  0  0  0  0  0  0  0  0  0  0  0
    9.4126   -5.9853   18.4899 C   0  0  0  0  0  0  0  0  0  0  0  0
    4.2064  -10.3242   18.3302 C   0  0  0  0  0  0  0  0  0  0  0  0
    9.6599   -4.1551   16.4796 N   0  0  0  0  0  0  0  0  0  0  0  0
    7.0644   -6.4612   15.7375 N   0  0  0  0  0  0  0  0  0  0  0  0
    5.3549   -9.6322   18.3190 C   0  0  0  0  0  0  0  0  0  0  0  0
   10.3704   -4.9638   18.6510 C   0  0  0  0  0  0  0  0  0  0  0  0
    5.5935   -8.6419   17.4234 C   0  0  0  0  0  0  0  0  0  0  0  0
   13.0726   -4.6648   23.3394 O   0  0  0  0  0  0  0  0  0  0  0  0
    8.5955   -6.0705   17.3996 C   0  0  0  0  0  0  0  0  0  0  0  0
    4.6223   -8.3832   16.5030 C   0  0  0  0  0  0  0  0  0  0  0  0
   12.4690   -5.2624   19.9024 C   0  0  0  0  0  0  0  0  0  0  0  0
    3.2548   -9.9919   17.4189 C   0  0  0  0  0  0  0  0  0  0  0  0
   12.4767   -4.7393   22.1790 C   0  0  0  0  0  0  0  0  0  0  0  0
    7.8593   -5.3772   15.3569 N   0  0  0  0  0  0  0  0  0  0  0  0
    7.4412   -6.9038   16.9283 C   0  0  0  0  0  0  0  0  0  0  0  0
  1 21  4  0
  1 23  4  0
  2  5  1  0
  2 13  4  0
  2 16  4  0
  3  6  4  0
  3  7  4  0
  4 13  4  0
  4 19  4  0
  4 24  4  0
  6 23  4  0
  7 16  1  0
  7 21  4  0
  8 18  1  0
  9 20  4  0
  9 22  4  0
 10 17  1  0
 10 25  1  0
 11 16  4  0
 11 19  4  0
 12 15  4  0
 12 22  4  0
 14 24  4  0
 14 25  4  0
 15 17  4  0
 17 20  4  0
 18 23  1  0
 19 25  4  0
M  END
$$$$

 Created by Python create_sdf_string function

 25 28  0  0  0  0  0  0  0  0999 V2000
   13.1533   -5.2399   21.0682 C   0  0  0  0  0  0  0  0  0  0  0  0
   10.4729   -4.0295   17.6135 C   0  0  0  0  0  0  0  0  0  0  0  0
   10.4789   -4.3641   20.9564 C   0  0  0  0  0  0  0  0  0  0  0  0
    8.7421   -5.1412   16.3650 C   0  0  0  0  0  0  0  0  0  0  0  0
   11.4353   -2.9204   17.8044 C   0  0  0  0  0  0  0  0  0  0  0  0
   11.1529   -4.3028   22.1277 C   0  0  0  0  0  0  0  0  0  0  0  0
   11.1290   -4.8502   19.8052 C   0  0  0  0  0  0  0  0  0  0  0  0
   12.4329   -4.2159   24.4224 C   0  0  0  0  0  0  0  0  0  0  0  0
    3.4740   -9.0387   16.5022 C   0  0  0  0  0  0  0  0  0  0  0  0
    6.8384   -7.9290   17.5282 N   0  0  0  0  0  0  0  0  0  0  0  0
    9.4126   -5.9853   18.4899 C   0  0  0  0  0  0  0  0  0  0  0  0
    4.2064  -10.3242   18.3302 C   0  0  0  0  0  0  0  0  0  0  0  0
    9.6599   -4.1551   16.4796 N   0  0  0  0  0  0  0  0  0  0  0  0
    7.0644   -6.4612   15.7375 N   0  0  0  0  0  0  0  0  0  0  0  0
    5.3549   -9.6322   18.3190 C   0  0  0  0  0  0  0  0  0  0  0  0
   10.3704   -4.9638   18.6510 C   0  0  0  0  0  0  0  0  0  0  0  0
    5.5935   -8.6419   17.4234 C   0  0  0  0  0  0  0  0  0  0  0  0
   13.0726   -4.6648   23.3394 O   0  0  0  0  0  0  0  0  0  0  0  0
    8.5955   -6.0705   17.3996 C   0  0  0  0  0  0  0  0  0  0  0  0
    4.6223   -8.3832   16.5030 C   0  0  0  0  0  0  0  0  0  0  0  0
   12.4690   -5.2624   19.9024 C   0  0  0  0  0  0  0  0  0  0  0  0
    3.2548   -9.9919   17.4189 C   0  0  0  0  0  0  0  0  0  0  0  0
   12.4767   -4.7393   22.1790 C   0  0  0  0  0  0  0  0  0  0  0  0
    7.8593   -5.3772   15.3569 N   0  0  0  0  0  0  0  0  0  0  0  0
    7.4412   -6.9038   16.9283 C   0  0  0  0  0  0  0  0  0  0  0  0
  1 21  4  0
  1 23  4  0
  2  5  1  0
  2 13  4  0
  2 16  4  0
  3  6  4  0
  3  7  4  0
  4 13  4  0
  4 19  4  0
  4 24  4  0
  6 23  4  0
  7 16  1  0
  7 21  4  0
  8 18  1  0
  9 20  4  0
  9 22  4  0
 10 17  1  0
 10 25  1  0
 11 16  4  0
 11 19  4  0
 12 15  4  0
 12 22  4  0
 14 24  4  0
 14 25  4  0
 15 17  4  0
 17 20  4  0
 18 23  1  0
 19 25  4  0
M  END
$$$$

 Created by Python create_sdf_string function

 25 28  0  0  0  0  0  0  0  0999 V2000
   13.1533   -5.2399   21.0682 C   0  0  0  0  0  0  0  0  0  0  0  0
   10.4729   -4.0295   17.6135 C   0  0  0  0  0  0  0  0  0  0  0  0
   10.4789   -4.3641   20.9564 C   0  0  0  0  0  0  0  0  0  0  0  0
    8.7421   -5.1412   16.3650 C   0  0  0  0  0  0  0  0  0  0  0  0
   11.4353   -2.9204   17.8044 C   0  0  0  0  0  0  0  0  0  0  0  0
   11.1529   -4.3028   22.1277 C   0  0  0  0  0  0  0  0  0  0  0  0
   11.1290   -4.8502   19.8052 C   0  0  0  0  0  0  0  0  0  0  0  0
   12.4329   -4.2159   24.4224 C   0  0  0  0  0  0  0  0  0  0  0  0
    3.4740   -9.0387   16.5022 C   0  0  0  0  0  0  0  0  0  0  0  0
    6.8384   -7.9290   17.5282 N   0  0  0  0  0  0  0  0  0  0  0  0
    9.4126   -5.9853   18.4899 C   0  0  0  0  0  0  0  0  0  0  0  0
    4.2064  -10.3242   18.3302 C   0  0  0  0  0  0  0  0  0  0  0  0
    9.6599   -4.1551   16.4796 N   0  0  0  0  0  0  0  0  0  0  0  0
    7.0644   -6.4612   15.7375 N   0  0  0  0  0  0  0  0  0  0  0  0
    5.3549   -9.6322   18.3190 C   0  0  0  0  0  0  0  0  0  0  0  0
   10.3704   -4.9638   18.6510 C   0  0  0  0  0  0  0  0  0  0  0  0
    5.5935   -8.6419   17.4234 C   0  0  0  0  0  0  0  0  0  0  0  0
   13.0726   -4.6648   23.3394 O   0  0  0  0  0  0  0  0  0  0  0  0
    8.5955   -6.0705   17.3996 C   0  0  0  0  0  0  0  0  0  0  0  0
    4.6223   -8.3832   16.5030 C   0  0  0  0  0  0  0  0  0  0  0  0
   12.4690   -5.2624   19.9024 C   0  0  0  0  0  0  0  0  0  0  0  0
    3.2548   -9.9919   17.4189 C   0  0  0  0  0  0  0  0  0  0  0  0
   12.4767   -4.7393   22.1790 C   0  0  0  0  0  0  0  0  0  0  0  0
    7.8593   -5.3772   15.3569 N   0  0  0  0  0  0  0  0  0  0  0  0
    7.4412   -6.9038   16.9283 C   0  0  0  0  0  0  0  0  0  0  0  0
  1 21  4  0
  1 23  4  0
  2  5  1  0
  2 13  4  0
  2 16  4  0
  3  6  4  0
  3  7  4  0
  4 13  4  0
  4 19  4  0
  4 24  4  0
  6 23  4  0
  7 16  1  0
  7 21  4  0
  8 18  1  0
  9 20  4  0
  9 22  4  0
 10 17  1  0
 10 25  1  0
 11 16  4  0
 11 19  4  0
 12 15  4  0
 12 22  4  0
 14 24  4  0
 14 25  4  0
 15 17  4  0
 17 20  4  0
 18 23  1  0
 19 25  4  0
M  END
$$$$

 Created by Python create_sdf_string function

 25 28  0  0  0  0  0  0  0  0999 V2000
   13.1533   -5.2399   21.0682 C   0  0  0  0  0  0  0  0  0  0  0  0
   10.4729   -4.0295   17.6135 C   0  0  0  0  0  0  0  0  0  0  0  0
   10.4789   -4.3641   20.9564 C   0  0  0  0  0  0  0  0  0  0  0  0
    8.7421   -5.1412   16.3650 C   0  0  0  0  0  0  0  0  0  0  0  0
   11.4353   -2.9204   17.8044 C   0  0  0  0  0  0  0  0  0  0  0  0
   11.1529   -4.3028   22.1277 C   0  0  0  0  0  0  0  0  0  0  0  0
   11.1290   -4.8502   19.8052 C   0  0  0  0  0  0  0  0  0  0  0  0
   12.4329   -4.2159   24.4224 C   0  0  0  0  0  0  0  0  0  0  0  0
    3.4740   -9.0387   16.5022 C   0  0  0  0  0  0  0  0  0  0  0  0
    6.8384   -7.9290   17.5282 N   0  0  0  0  0  0  0  0  0  0  0  0
    9.4126   -5.9853   18.4899 C   0  0  0  0  0  0  0  0  0  0  0  0
    4.2064  -10.3242   18.3302 C   0  0  0  0  0  0  0  0  0  0  0  0
    9.6599   -4.1551   16.4796 N   0  0  0  0  0  0  0  0  0  0  0  0
    7.0644   -6.4612   15.7375 N   0  0  0  0  0  0  0  0  0  0  0  0
    5.3549   -9.6322   18.3190 C   0  0  0  0  0  0  0  0  0  0  0  0
   10.3704   -4.9638   18.6510 C   0  0  0  0  0  0  0  0  0  0  0  0
    5.5935   -8.6419   17.4234 C   0  0  0  0  0  0  0  0  0  0  0  0
   13.0726   -4.6648   23.3394 O   0  0  0  0  0  0  0  0  0  0  0  0
    8.5955   -6.0705   17.3996 C   0  0  0  0  0  0  0  0  0  0  0  0
    4.6223   -8.3832   16.5030 C   0  0  0  0  0  0  0  0  0  0  0  0
   12.4690   -5.2624   19.9024 C   0  0  0  0  0  0  0  0  0  0  0  0
    3.2548   -9.9919   17.4189 C   0  0  0  0  0  0  0  0  0  0  0  0
   12.4767   -4.7393   22.1790 C   0  0  0  0  0  0  0  0  0  0  0  0
    7.8593   -5.3772   15.3569 N   0  0  0  0  0  0  0  0  0  0  0  0
    7.4412   -6.9038   16.9283 C   0  0  0  0  0  0  0  0  0  0  0  0
  1 21  4  0
  1 23  4  0
  2  5  1  0
  2 13  4  0
  2 16  4  0
  3  6  4  0
  3  7  4  0
  4 13  4  0
  4 19  4  0
  4 24  4  0
  6 23  4  0
  7 16  1  0
  7 21  4  0
  8 18  1  0
  9 20  4  0
  9 22  4  0
 10 17  1  0
 10 25  1  0
 11 16  4  0
 11 19  4  0
 12 15  4  0
 12 22  4  0
 14 24  4  0
 14 25  4  0
 15 17  4  0
 17 20  4  0
 18 23  1  0
 19 25  4  0
M  END
$$$$

 Created by Python create_sdf_string function

 25 28  0  0  0  0  0  0  0  0999 V2000
   13.1533   -5.2399   21.0682 C   0  0  0  0  0  0  0  0  0  0  0  0
   10.4729   -4.0295   17.6135 C   0  0  0  0  0  0  0  0  0  0  0  0
   10.4789   -4.3641   20.9564 C   0  0  0  0  0  0  0  0  0  0  0  0
    8.7421   -5.1412   16.3650 C   0  0  0  0  0  0  0  0  0  0  0  0
   11.4353   -2.9204   17.8044 C   0  0  0  0  0  0  0  0  0  0  0  0
   11.1529   -4.3028   22.1277 C   0  0  0  0  0  0  0  0  0  0  0  0
   11.1290   -4.8502   19.8052 C   0  0  0  0  0  0  0  0  0  0  0  0
   12.4329   -4.2159   24.4224 C   0  0  0  0  0  0  0  0  0  0  0  0
    3.4740   -9.0387   16.5022 C   0  0  0  0  0  0  0  0  0  0  0  0
    6.8384   -7.9290   17.5282 N   0  0  0  0  0  0  0  0  0  0  0  0
    9.4126   -5.9853   18.4899 C   0  0  0  0  0  0  0  0  0  0  0  0
    4.2064  -10.3242   18.3302 C   0  0  0  0  0  0  0  0  0  0  0  0
    9.6599   -4.1551   16.4796 N   0  0  0  0  0  0  0  0  0  0  0  0
    7.0644   -6.4612   15.7375 N   0  0  0  0  0  0  0  0  0  0  0  0
    5.3549   -9.6322   18.3190 C   0  0  0  0  0  0  0  0  0  0  0  0
   10.3704   -4.9638   18.6510 C   0  0  0  0  0  0  0  0  0  0  0  0
    5.5935   -8.6419   17.4234 C   0  0  0  0  0  0  0  0  0  0  0  0
   13.0726   -4.6648   23.3394 O   0  0  0  0  0  0  0  0  0  0  0  0
    8.5955   -6.0705   17.3996 C   0  0  0  0  0  0  0  0  0  0  0  0
    4.6223   -8.3832   16.5030 C   0  0  0  0  0  0  0  0  0  0  0  0
   12.4690   -5.2624   19.9024 C   0  0  0  0  0  0  0  0  0  0  0  0
    3.2548   -9.9919   17.4189 C   0  0  0  0  0  0  0  0  0  0  0  0
   12.4767   -4.7393   22.1790 C   0  0  0  0  0  0  0  0  0  0  0  0
    7.8593   -5.3772   15.3569 N   0  0  0  0  0  0  0  0  0  0  0  0
    7.4412   -6.9038   16.9283 C   0  0  0  0  0  0  0  0  0  0  0  0
  1 21  4  0
  1 23  4  0
  2  5  1  0
  2 13  4  0
  2 16  4  0
  3  6  4  0
  3  7  4  0
  4 13  4  0
  4 19  4  0
  4 24  4  0
  6 23  4  0
  7 16  1  0
  7 21  4  0
  8 18  1  0
  9 20  4  0
  9 22  4  0
 10 17  1  0
 10 25  1  0
 11 16  4  0
 11 19  4  0
 12 15  4  0
 12 22  4  0
 14 24  4  0
 14 25  4  0
 15 17  4  0
 17 20  4  0
 18 23  1  0
 19 25  4  0
M  END
$$$$

 Created by Python create_sdf_string function

 25 28  0  0  0  0  0  0  0  0999 V2000
   13.1533   -5.2399   21.0682 C   0  0  0  0  0  0  0  0  0  0  0  0
   10.4729   -4.0295   17.6135 C   0  0  0  0  0  0  0  0  0  0  0  0
   10.4789   -4.3641   20.9564 C   0  0  0  0  0  0  0  0  0  0  0  0
    8.7421   -5.1412   16.3650 C   0  0  0  0  0  0  0  0  0  0  0  0
   11.4353   -2.9204   17.8044 C   0  0  0  0  0  0  0  0  0  0  0  0
   11.1529   -4.3028   22.1277 C   0  0  0  0  0  0  0  0  0  0  0  0
   11.1290   -4.8502   19.8052 C   0  0  0  0  0  0  0  0  0  0  0  0
   12.4329   -4.2159   24.4224 C   0  0  0  0  0  0  0  0  0  0  0  0
    3.4740   -9.0387   16.5022 C   0  0  0  0  0  0  0  0  0  0  0  0
    6.8384   -7.9290   17.5282 N   0  0  0  0  0  0  0  0  0  0  0  0
    9.4126   -5.9853   18.4899 C   0  0  0  0  0  0  0  0  0  0  0  0
    4.2064  -10.3242   18.3302 C   0  0  0  0  0  0  0  0  0  0  0  0
    9.6599   -4.1551   16.4796 N   0  0  0  0  0  0  0  0  0  0  0  0
    7.0644   -6.4612   15.7375 N   0  0  0  0  0  0  0  0  0  0  0  0
    5.3549   -9.6322   18.3190 C   0  0  0  0  0  0  0  0  0  0  0  0
   10.3704   -4.9638   18.6510 C   0  0  0  0  0  0  0  0  0  0  0  0
    5.5935   -8.6419   17.4234 C   0  0  0  0  0  0  0  0  0  0  0  0
   13.0726   -4.6648   23.3394 O   0  0  0  0  0  0  0  0  0  0  0  0
    8.5955   -6.0705   17.3996 C   0  0  0  0  0  0  0  0  0  0  0  0
    4.6223   -8.3832   16.5030 C   0  0  0  0  0  0  0  0  0  0  0  0
   12.4690   -5.2624   19.9024 C   0  0  0  0  0  0  0  0  0  0  0  0
    3.2548   -9.9919   17.4189 C   0  0  0  0  0  0  0  0  0  0  0  0
   12.4767   -4.7393   22.1790 C   0  0  0  0  0  0  0  0  0  0  0  0
    7.8593   -5.3772   15.3569 N   0  0  0  0  0  0  0  0  0  0  0  0
    7.4412   -6.9038   16.9283 C   0  0  0  0  0  0  0  0  0  0  0  0
  1 21  4  0
  1 23  4  0
  2  5  1  0
  2 13  4  0
  2 16  4  0
  3  6  4  0
  3  7  4  0
  4 13  4  0
  4 19  4  0
  4 24  4  0
  6 23  4  0
  7 16  1  0
  7 21  4  0
  8 18  1  0
  9 20  4  0
  9 22  4  0
 10 17  1  0
 10 25  1  0
 11 16  4  0
 11 19  4  0
 12 15  4  0
 12 22  4  0
 14 24  4  0
 14 25  4  0
 15 17  4  0
 17 20  4  0
 18 23  1  0
 19 25  4  0
M  END
$$$$

 Created by Python create_sdf_string function

 25 28  0  0  0  0  0  0  0  0999 V2000
   13.1533   -5.2399   21.0682 C   0  0  0  0  0  0  0  0  0  0  0  0
   10.4729   -4.0295   17.6135 C   0  0  0  0  0  0  0  0  0  0  0  0
   10.4789   -4.3641   20.9564 C   0  0  0  0  0  0  0  0  0  0  0  0
    8.7421   -5.1412   16.3650 C   0  0  0  0  0  0  0  0  0  0  0  0
   11.4353   -2.9204   17.8044 C   0  0  0  0  0  0  0  0  0  0  0  0
   11.1529   -4.3028   22.1277 C   0  0  0  0  0  0  0  0  0  0  0  0
   11.1290   -4.8502   19.8052 C   0  0  0  0  0  0  0  0  0  0  0  0
   12.4329   -4.2159   24.4224 C   0  0  0  0  0  0  0  0  0  0  0  0
    3.4740   -9.0387   16.5022 C   0  0  0  0  0  0  0  0  0  0  0  0
    6.8384   -7.9290   17.5282 N   0  0  0  0  0  0  0  0  0  0  0  0
    9.4126   -5.9853   18.4899 C   0  0  0  0  0  0  0  0  0  0  0  0
    4.2064  -10.3242   18.3302 C   0  0  0  0  0  0  0  0  0  0  0  0
    9.6599   -4.1551   16.4796 N   0  0  0  0  0  0  0  0  0  0  0  0
    7.0644   -6.4612   15.7375 N   0  0  0  0  0  0  0  0  0  0  0  0
    5.3549   -9.6322   18.3190 C   0  0  0  0  0  0  0  0  0  0  0  0
   10.3704   -4.9638   18.6510 C   0  0  0  0  0  0  0  0  0  0  0  0
    5.5935   -8.6419   17.4234 C   0  0  0  0  0  0  0  0  0  0  0  0
   13.0726   -4.6648   23.3394 O   0  0  0  0  0  0  0  0  0  0  0  0
    8.5955   -6.0705   17.3996 C   0  0  0  0  0  0  0  0  0  0  0  0
    4.6223   -8.3832   16.5030 C   0  0  0  0  0  0  0  0  0  0  0  0
   12.4690   -5.2624   19.9024 C   0  0  0  0  0  0  0  0  0  0  0  0
    3.2548   -9.9919   17.4189 C   0  0  0  0  0  0  0  0  0  0  0  0
   12.4767   -4.7393   22.1790 C   0  0  0  0  0  0  0  0  0  0  0  0
    7.8593   -5.3772   15.3569 N   0  0  0  0  0  0  0  0  0  0  0  0
    7.4412   -6.9038   16.9283 C   0  0  0  0  0  0  0  0  0  0  0  0
  1 21  4  0
  1 23  4  0
  2  5  1  0
  2 13  4  0
  2 16  4  0
  3  6  4  0
  3  7  4  0
  4 13  4  0
  4 19  4  0
  4 24  4  0
  6 23  4  0
  7 16  1  0
  7 21  4  0
  8 18  1  0
  9 20  4  0
  9 22  4  0
 10 17  1  0
 10 25  1  0
 11 16  4  0
 11 19  4  0
 12 15  4  0
 12 22  4  0
 14 24  4  0
 14 25  4  0
 15 17  4  0
 17 20  4  0
 18 23  1  0
 19 25  4  0
M  END
$$$$

 Created by Python create_sdf_string function

 25 28  0  0  0  0  0  0  0  0999 V2000
   13.1533   -5.2399   21.0682 C   0  0  0  0  0  0  0  0  0  0  0  0
   10.4729   -4.0295   17.6135 C   0  0  0  0  0  0  0  0  0  0  0  0
   10.4789   -4.3641   20.9564 C   0  0  0  0  0  0  0  0  0  0  0  0
    8.7421   -5.1412   16.3650 C   0  0  0  0  0  0  0  0  0  0  0  0
   11.4353   -2.9204   17.8044 C   0  0  0  0  0  0  0  0  0  0  0  0
   11.1529   -4.3028   22.1277 C   0  0  0  0  0  0  0  0  0  0  0  0
   11.1290   -4.8502   19.8052 C   0  0  0  0  0  0  0  0  0  0  0  0
   12.4329   -4.2159   24.4224 C   0  0  0  0  0  0  0  0  0  0  0  0
    3.4740   -9.0387   16.5022 C   0  0  0  0  0  0  0  0  0  0  0  0
    6.8384   -7.9290   17.5282 N   0  0  0  0  0  0  0  0  0  0  0  0
    9.4126   -5.9853   18.4899 C   0  0  0  0  0  0  0  0  0  0  0  0
    4.2064  -10.3242   18.3302 C   0  0  0  0  0  0  0  0  0  0  0  0
    9.6599   -4.1551   16.4796 N   0  0  0  0  0  0  0  0  0  0  0  0
    7.0644   -6.4612   15.7375 N   0  0  0  0  0  0  0  0  0  0  0  0
    5.3549   -9.6322   18.3190 C   0  0  0  0  0  0  0  0  0  0  0  0
   10.3704   -4.9638   18.6510 C   0  0  0  0  0  0  0  0  0  0  0  0
    5.5935   -8.6419   17.4234 C   0  0  0  0  0  0  0  0  0  0  0  0
   13.0726   -4.6648   23.3394 O   0  0  0  0  0  0  0  0  0  0  0  0
    8.5955   -6.0705   17.3996 C   0  0  0  0  0  0  0  0  0  0  0  0
    4.6223   -8.3832   16.5030 C   0  0  0  0  0  0  0  0  0  0  0  0
   12.4690   -5.2624   19.9024 C   0  0  0  0  0  0  0  0  0  0  0  0
    3.2548   -9.9919   17.4189 C   0  0  0  0  0  0  0  0  0  0  0  0
   12.4767   -4.7393   22.1790 C   0  0  0  0  0  0  0  0  0  0  0  0
    7.8593   -5.3772   15.3569 N   0  0  0  0  0  0  0  0  0  0  0  0
    7.4412   -6.9038   16.9283 C   0  0  0  0  0  0  0  0  0  0  0  0
  1 21  4  0
  1 23  4  0
  2  5  1  0
  2 13  4  0
  2 16  4  0
  3  6  4  0
  3  7  4  0
  4 13  4  0
  4 19  4  0
  4 24  4  0
  6 23  4  0
  7 16  1  0
  7 21  4  0
  8 18  1  0
  9 20  4  0
  9 22  4  0
 10 17  1  0
 10 25  1  0
 11 16  4  0
 11 19  4  0
 12 15  4  0
 12 22  4  0
 14 24  4  0
 14 25  4  0
 15 17  4  0
 17 20  4  0
 18 23  1  0
 19 25  4  0
M  END
$$$$

 Created by Python create_sdf_string function

 25 28  0  0  0  0  0  0  0  0999 V2000
   13.1533   -5.2399   21.0682 C   0  0  0  0  0  0  0  0  0  0  0  0
   10.4729   -4.0295   17.6135 C   0  0  0  0  0  0  0  0  0  0  0  0
   10.4789   -4.3641   20.9564 C   0  0  0  0  0  0  0  0  0  0  0  0
    8.7421   -5.1412   16.3650 C   0  0  0  0  0  0  0  0  0  0  0  0
   11.4353   -2.9204   17.8044 C   0  0  0  0  0  0  0  0  0  0  0  0
   11.1529   -4.3028   22.1277 C   0  0  0  0  0  0  0  0  0  0  0  0
   11.1290   -4.8502   19.8052 C   0  0  0  0  0  0  0  0  0  0  0  0
   12.4329   -4.2159   24.4224 C   0  0  0  0  0  0  0  0  0  0  0  0
    3.4740   -9.0387   16.5022 C   0  0  0  0  0  0  0  0  0  0  0  0
    6.8384   -7.9290   17.5282 N   0  0  0  0  0  0  0  0  0  0  0  0
    9.4126   -5.9853   18.4899 C   0  0  0  0  0  0  0  0  0  0  0  0
    4.2064  -10.3242   18.3302 C   0  0  0  0  0  0  0  0  0  0  0  0
    9.6599   -4.1551   16.4796 N   0  0  0  0  0  0  0  0  0  0  0  0
    7.0644   -6.4612   15.7375 N   0  0  0  0  0  0  0  0  0  0  0  0
    5.3549   -9.6322   18.3190 C   0  0  0  0  0  0  0  0  0  0  0  0
   10.3704   -4.9638   18.6510 C   0  0  0  0  0  0  0  0  0  0  0  0
    5.5935   -8.6419   17.4234 C   0  0  0  0  0  0  0  0  0  0  0  0
   13.0726   -4.6648   23.3394 O   0  0  0  0  0  0  0  0  0  0  0  0
    8.5955   -6.0705   17.3996 C   0  0  0  0  0  0  0  0  0  0  0  0
    4.6223   -8.3832   16.5030 C   0  0  0  0  0  0  0  0  0  0  0  0
   12.4690   -5.2624   19.9024 C   0  0  0  0  0  0  0  0  0  0  0  0
    3.2548   -9.9919   17.4189 C   0  0  0  0  0  0  0  0  0  0  0  0
   12.4767   -4.7393   22.1790 C   0  0  0  0  0  0  0  0  0  0  0  0
    7.8593   -5.3772   15.3569 N   0  0  0  0  0  0  0  0  0  0  0  0
    7.4412   -6.9038   16.9283 C   0  0  0  0  0  0  0  0  0  0  0  0
  1 21  4  0
  1 23  4  0
  2  5  1  0
  2 13  4  0
  2 16  4  0
  3  6  4  0
  3  7  4  0
  4 13  4  0
  4 19  4  0
  4 24  4  0
  6 23  4  0
  7 16  1  0
  7 21  4  0
  8 18  1  0
  9 20  4  0
  9 22  4  0
 10 17  1  0
 10 25  1  0
 11 16  4  0
 11 19  4  0
 12 15  4  0
 12 22  4  0
 14 24  4  0
 14 25  4  0
 15 17  4  0
 17 20  4  0
 18 23  1  0
 19 25  4  0
M  END
$$$$

 Created by Python create_sdf_string function

 25 28  0  0  0  0  0  0  0  0999 V2000
   13.1533   -5.2399   21.0682 C   0  0  0  0  0  0  0  0  0  0  0  0
   10.4729   -4.0295   17.6135 C   0  0  0  0  0  0  0  0  0  0  0  0
   10.4789   -4.3641   20.9564 C   0  0  0  0  0  0  0  0  0  0  0  0
    8.7421   -5.1412   16.3650 C   0  0  0  0  0  0  0  0  0  0  0  0
   11.4353   -2.9204   17.8044 C   0  0  0  0  0  0  0  0  0  0  0  0
   11.1529   -4.3028   22.1277 C   0  0  0  0  0  0  0  0  0  0  0  0
   11.1290   -4.8502   19.8052 C   0  0  0  0  0  0  0  0  0  0  0  0
   12.4329   -4.2159   24.4224 C   0  0  0  0  0  0  0  0  0  0  0  0
    3.4740   -9.0387   16.5022 C   0  0  0  0  0  0  0  0  0  0  0  0
    6.8384   -7.9290   17.5282 N   0  0  0  0  0  0  0  0  0  0  0  0
    9.4126   -5.9853   18.4899 C   0  0  0  0  0  0  0  0  0  0  0  0
    4.2064  -10.3242   18.3302 C   0  0  0  0  0  0  0  0  0  0  0  0
    9.6599   -4.1551   16.4796 N   0  0  0  0  0  0  0  0  0  0  0  0
    7.0644   -6.4612   15.7375 N   0  0  0  0  0  0  0  0  0  0  0  0
    5.3549   -9.6322   18.3190 C   0  0  0  0  0  0  0  0  0  0  0  0
   10.3704   -4.9638   18.6510 C   0  0  0  0  0  0  0  0  0  0  0  0
    5.5935   -8.6419   17.4234 C   0  0  0  0  0  0  0  0  0  0  0  0
   13.0726   -4.6648   23.3394 O   0  0  0  0  0  0  0  0  0  0  0  0
    8.5955   -6.0705   17.3996 C   0  0  0  0  0  0  0  0  0  0  0  0
    4.6223   -8.3832   16.5030 C   0  0  0  0  0  0  0  0  0  0  0  0
   12.4690   -5.2624   19.9024 C   0  0  0  0  0  0  0  0  0  0  0  0
    3.2548   -9.9919   17.4189 C   0  0  0  0  0  0  0  0  0  0  0  0
   12.4767   -4.7393   22.1790 C   0  0  0  0  0  0  0  0  0  0  0  0
    7.8593   -5.3772   15.3569 N   0  0  0  0  0  0  0  0  0  0  0  0
    7.4412   -6.9038   16.9283 C   0  0  0  0  0  0  0  0  0  0  0  0
  1 21  4  0
  1 23  4  0
  2  5  1  0
  2 13  4  0
  2 16  4  0
  3  6  4  0
  3  7  4  0
  4 13  4  0
  4 19  4  0
  4 24  4  0
  6 23  4  0
  7 16  1  0
  7 21  4  0
  8 18  1  0
  9 20  4  0
  9 22  4  0
 10 17  1  0
 10 25  1  0
 11 16  4  0
 11 19  4  0
 12 15  4  0
 12 22  4  0
 14 24  4  0
 14 25  4  0
 15 17  4  0
 17 20  4  0
 18 23  1  0
 19 25  4  0
M  END
$$$$

 Created by Python create_sdf_string function

 25 28  0  0  0  0  0  0  0  0999 V2000
   13.1533   -5.2399   21.0682 C   0  0  0  0  0  0  0  0  0  0  0  0
   10.4729   -4.0295   17.6135 C   0  0  0  0  0  0  0  0  0  0  0  0
   10.4789   -4.3641   20.9564 C   0  0  0  0  0  0  0  0  0  0  0  0
    8.7421   -5.1412   16.3650 C   0  0  0  0  0  0  0  0  0  0  0  0
   11.4353   -2.9204   17.8044 C   0  0  0  0  0  0  0  0  0  0  0  0
   11.1529   -4.3028   22.1277 C   0  0  0  0  0  0  0  0  0  0  0  0
   11.1290   -4.8502   19.8052 C   0  0  0  0  0  0  0  0  0  0  0  0
   12.4329   -4.2159   24.4224 C   0  0  0  0  0  0  0  0  0  0  0  0
    3.4740   -9.0387   16.5022 C   0  0  0  0  0  0  0  0  0  0  0  0
    6.8384   -7.9290   17.5282 N   0  0  0  0  0  0  0  0  0  0  0  0
    9.4126   -5.9853   18.4899 C   0  0  0  0  0  0  0  0  0  0  0  0
    4.2064  -10.3242   18.3302 C   0  0  0  0  0  0  0  0  0  0  0  0
    9.6599   -4.1551   16.4796 N   0  0  0  0  0  0  0  0  0  0  0  0
    7.0644   -6.4612   15.7375 N   0  0  0  0  0  0  0  0  0  0  0  0
    5.3549   -9.6322   18.3190 C   0  0  0  0  0  0  0  0  0  0  0  0
   10.3704   -4.9638   18.6510 C   0  0  0  0  0  0  0  0  0  0  0  0
    5.5935   -8.6419   17.4234 C   0  0  0  0  0  0  0  0  0  0  0  0
   13.0726   -4.6648   23.3394 O   0  0  0  0  0  0  0  0  0  0  0  0
    8.5955   -6.0705   17.3996 C   0  0  0  0  0  0  0  0  0  0  0  0
    4.6223   -8.3832   16.5030 C   0  0  0  0  0  0  0  0  0  0  0  0
   12.4690   -5.2624   19.9024 C   0  0  0  0  0  0  0  0  0  0  0  0
    3.2548   -9.9919   17.4189 C   0  0  0  0  0  0  0  0  0  0  0  0
   12.4767   -4.7393   22.1790 C   0  0  0  0  0  0  0  0  0  0  0  0
    7.8593   -5.3772   15.3569 N   0  0  0  0  0  0  0  0  0  0  0  0
    7.4412   -6.9038   16.9283 C   0  0  0  0  0  0  0  0  0  0  0  0
  1 21  4  0
  1 23  4  0
  2  5  1  0
  2 13  4  0
  2 16  4  0
  3  6  4  0
  3  7  4  0
  4 13  4  0
  4 19  4  0
  4 24  4  0
  6 23  4  0
  7 16  1  0
  7 21  4  0
  8 18  1  0
  9 20  4  0
  9 22  4  0
 10 17  1  0
 10 25  1  0
 11 16  4  0
 11 19  4  0
 12 15  4  0
 12 22  4  0
 14 24  4  0
 14 25  4  0
 15 17  4  0
 17 20  4  0
 18 23  1  0
 19 25  4  0
M  END
$$$$

 Created by Python create_sdf_string function

 25 28  0  0  0  0  0  0  0  0999 V2000
   13.1533   -5.2399   21.0682 C   0  0  0  0  0  0  0  0  0  0  0  0
   10.4729   -4.0295   17.6135 C   0  0  0  0  0  0  0  0  0  0  0  0
   10.4789   -4.3641   20.9564 C   0  0  0  0  0  0  0  0  0  0  0  0
    8.7421   -5.1412   16.3650 C   0  0  0  0  0  0  0  0  0  0  0  0
   11.4353   -2.9204   17.8044 C   0  0  0  0  0  0  0  0  0  0  0  0
   11.1529   -4.3028   22.1277 C   0  0  0  0  0  0  0  0  0  0  0  0
   11.1290   -4.8502   19.8052 C   0  0  0  0  0  0  0  0  0  0  0  0
   12.4329   -4.2159   24.4224 C   0  0  0  0  0  0  0  0  0  0  0  0
    3.4740   -9.0387   16.5022 C   0  0  0  0  0  0  0  0  0  0  0  0
    6.8384   -7.9290   17.5282 N   0  0  0  0  0  0  0  0  0  0  0  0
    9.4126   -5.9853   18.4899 C   0  0  0  0  0  0  0  0  0  0  0  0
    4.2064  -10.3242   18.3302 C   0  0  0  0  0  0  0  0  0  0  0  0
    9.6599   -4.1551   16.4796 N   0  0  0  0  0  0  0  0  0  0  0  0
    7.0644   -6.4612   15.7375 N   0  0  0  0  0  0  0  0  0  0  0  0
    5.3549   -9.6322   18.3190 C   0  0  0  0  0  0  0  0  0  0  0  0
   10.3704   -4.9638   18.6510 C   0  0  0  0  0  0  0  0  0  0  0  0
    5.5935   -8.6419   17.4234 C   0  0  0  0  0  0  0  0  0  0  0  0
   13.0726   -4.6648   23.3394 O   0  0  0  0  0  0  0  0  0  0  0  0
    8.5955   -6.0705   17.3996 C   0  0  0  0  0  0  0  0  0  0  0  0
    4.6223   -8.3832   16.5030 C   0  0  0  0  0  0  0  0  0  0  0  0
   12.4690   -5.2624   19.9024 C   0  0  0  0  0  0  0  0  0  0  0  0
    3.2548   -9.9919   17.4189 C   0  0  0  0  0  0  0  0  0  0  0  0
   12.4767   -4.7393   22.1790 C   0  0  0  0  0  0  0  0  0  0  0  0
    7.8593   -5.3772   15.3569 N   0  0  0  0  0  0  0  0  0  0  0  0
    7.4412   -6.9038   16.9283 C   0  0  0  0  0  0  0  0  0  0  0  0
  1 21  4  0
  1 23  4  0
  2  5  1  0
  2 13  4  0
  2 16  4  0
  3  6  4  0
  3  7  4  0
  4 13  4  0
  4 19  4  0
  4 24  4  0
  6 23  4  0
  7 16  1  0
  7 21  4  0
  8 18  1  0
  9 20  4  0
  9 22  4  0
 10 17  1  0
 10 25  1  0
 11 16  4  0
 11 19  4  0
 12 15  4  0
 12 22  4  0
 14 24  4  0
 14 25  4  0
 15 17  4  0
 17 20  4  0
 18 23  1  0
 19 25  4  0
M  END
$$$$

 Created by Python create_sdf_string function

 25 28  0  0  0  0  0  0  0  0999 V2000
   13.1533   -5.2399   21.0682 C   0  0  0  0  0  0  0  0  0  0  0  0
   10.4729   -4.0295   17.6135 C   0  0  0  0  0  0  0  0  0  0  0  0
   10.4789   -4.3641   20.9564 C   0  0  0  0  0  0  0  0  0  0  0  0
    8.7421   -5.1412   16.3650 C   0  0  0  0  0  0  0  0  0  0  0  0
   11.4353   -2.9204   17.8044 C   0  0  0  0  0  0  0  0  0  0  0  0
   11.1529   -4.3028   22.1277 C   0  0  0  0  0  0  0  0  0  0  0  0
   11.1290   -4.8502   19.8052 C   0  0  0  0  0  0  0  0  0  0  0  0
   12.4329   -4.2159   24.4224 C   0  0  0  0  0  0  0  0  0  0  0  0
    3.4740   -9.0387   16.5022 C   0  0  0  0  0  0  0  0  0  0  0  0
    6.8384   -7.9290   17.5282 N   0  0  0  0  0  0  0  0  0  0  0  0
    9.4126   -5.9853   18.4899 C   0  0  0  0  0  0  0  0  0  0  0  0
    4.2064  -10.3242   18.3302 C   0  0  0  0  0  0  0  0  0  0  0  0
    9.6599   -4.1551   16.4796 N   0  0  0  0  0  0  0  0  0  0  0  0
    7.0644   -6.4612   15.7375 N   0  0  0  0  0  0  0  0  0  0  0  0
    5.3549   -9.6322   18.3190 C   0  0  0  0  0  0  0  0  0  0  0  0
   10.3704   -4.9638   18.6510 C   0  0  0  0  0  0  0  0  0  0  0  0
    5.5935   -8.6419   17.4234 C   0  0  0  0  0  0  0  0  0  0  0  0
   13.0726   -4.6648   23.3394 O   0  0  0  0  0  0  0  0  0  0  0  0
    8.5955   -6.0705   17.3996 C   0  0  0  0  0  0  0  0  0  0  0  0
    4.6223   -8.3832   16.5030 C   0  0  0  0  0  0  0  0  0  0  0  0
   12.4690   -5.2624   19.9024 C   0  0  0  0  0  0  0  0  0  0  0  0
    3.2548   -9.9919   17.4189 C   0  0  0  0  0  0  0  0  0  0  0  0
   12.4767   -4.7393   22.1790 C   0  0  0  0  0  0  0  0  0  0  0  0
    7.8593   -5.3772   15.3569 N   0  0  0  0  0  0  0  0  0  0  0  0
    7.4412   -6.9038   16.9283 C   0  0  0  0  0  0  0  0  0  0  0  0
  1 21  4  0
  1 23  4  0
  2  5  1  0
  2 13  4  0
  2 16  4  0
  3  6  4  0
  3  7  4  0
  4 13  4  0
  4 19  4  0
  4 24  4  0
  6 23  4  0
  7 16  1  0
  7 21  4  0
  8 18  1  0
  9 20  4  0
  9 22  4  0
 10 17  1  0
 10 25  1  0
 11 16  4  0
 11 19  4  0
 12 15  4  0
 12 22  4  0
 14 24  4  0
 14 25  4  0
 15 17  4  0
 17 20  4  0
 18 23  1  0
 19 25  4  0
M  END
$$$$

 Created by Python create_sdf_string function

 25 28  0  0  0  0  0  0  0  0999 V2000
   13.1533   -5.2399   21.0682 C   0  0  0  0  0  0  0  0  0  0  0  0
   10.4729   -4.0295   17.6135 C   0  0  0  0  0  0  0  0  0  0  0  0
   10.4789   -4.3641   20.9564 C   0  0  0  0  0  0  0  0  0  0  0  0
    8.7421   -5.1412   16.3650 C   0  0  0  0  0  0  0  0  0  0  0  0
   11.4353   -2.9204   17.8044 C   0  0  0  0  0  0  0  0  0  0  0  0
   11.1529   -4.3028   22.1277 C   0  0  0  0  0  0  0  0  0  0  0  0
   11.1290   -4.8502   19.8052 C   0  0  0  0  0  0  0  0  0  0  0  0
   12.4329   -4.2159   24.4224 C   0  0  0  0  0  0  0  0  0  0  0  0
    3.4740   -9.0387   16.5022 C   0  0  0  0  0  0  0  0  0  0  0  0
    6.8384   -7.9290   17.5282 N   0  0  0  0  0  0  0  0  0  0  0  0
    9.4126   -5.9853   18.4899 C   0  0  0  0  0  0  0  0  0  0  0  0
    4.2064  -10.3242   18.3302 C   0  0  0  0  0  0  0  0  0  0  0  0
    9.6599   -4.1551   16.4796 N   0  0  0  0  0  0  0  0  0  0  0  0
    7.0644   -6.4612   15.7375 N   0  0  0  0  0  0  0  0  0  0  0  0
    5.3549   -9.6322   18.3190 C   0  0  0  0  0  0  0  0  0  0  0  0
   10.3704   -4.9638   18.6510 C   0  0  0  0  0  0  0  0  0  0  0  0
    5.5935   -8.6419   17.4234 C   0  0  0  0  0  0  0  0  0  0  0  0
   13.0726   -4.6648   23.3394 O   0  0  0  0  0  0  0  0  0  0  0  0
    8.5955   -6.0705   17.3996 C   0  0  0  0  0  0  0  0  0  0  0  0
    4.6223   -8.3832   16.5030 C   0  0  0  0  0  0  0  0  0  0  0  0
   12.4690   -5.2624   19.9024 C   0  0  0  0  0  0  0  0  0  0  0  0
    3.2548   -9.9919   17.4189 C   0  0  0  0  0  0  0  0  0  0  0  0
   12.4767   -4.7393   22.1790 C   0  0  0  0  0  0  0  0  0  0  0  0
    7.8593   -5.3772   15.3569 N   0  0  0  0  0  0  0  0  0  0  0  0
    7.4412   -6.9038   16.9283 C   0  0  0  0  0  0  0  0  0  0  0  0
  1 21  4  0
  1 23  4  0
  2  5  1  0
  2 13  4  0
  2 16  4  0
  3  6  4  0
  3  7  4  0
  4 13  4  0
  4 19  4  0
  4 24  4  0
  6 23  4  0
  7 16  1  0
  7 21  4  0
  8 18  1  0
  9 20  4  0
  9 22  4  0
 10 17  1  0
 10 25  1  0
 11 16  4  0
 11 19  4  0
 12 15  4  0
 12 22  4  0
 14 24  4  0
 14 25  4  0
 15 17  4  0
 17 20  4  0
 18 23  1  0
 19 25  4  0
M  END
$$$$

 Created by Python create_sdf_string function

 25 28  0  0  0  0  0  0  0  0999 V2000
   13.1533   -5.2399   21.0682 C   0  0  0  0  0  0  0  0  0  0  0  0
   10.4729   -4.0295   17.6135 C   0  0  0  0  0  0  0  0  0  0  0  0
   10.4789   -4.3641   20.9564 C   0  0  0  0  0  0  0  0  0  0  0  0
    8.7421   -5.1412   16.3650 C   0  0  0  0  0  0  0  0  0  0  0  0
   11.4353   -2.9204   17.8044 C   0  0  0  0  0  0  0  0  0  0  0  0
   11.1529   -4.3028   22.1277 C   0  0  0  0  0  0  0  0  0  0  0  0
   11.1290   -4.8502   19.8052 C   0  0  0  0  0  0  0  0  0  0  0  0
   12.4329   -4.2159   24.4224 C   0  0  0  0  0  0  0  0  0  0  0  0
    3.4740   -9.0387   16.5022 C   0  0  0  0  0  0  0  0  0  0  0  0
    6.8384   -7.9290   17.5282 N   0  0  0  0  0  0  0  0  0  0  0  0
    9.4126   -5.9853   18.4899 C   0  0  0  0  0  0  0  0  0  0  0  0
    4.2064  -10.3242   18.3302 C   0  0  0  0  0  0  0  0  0  0  0  0
    9.6599   -4.1551   16.4796 N   0  0  0  0  0  0  0  0  0  0  0  0
    7.0644   -6.4612   15.7375 N   0  0  0  0  0  0  0  0  0  0  0  0
    5.3549   -9.6322   18.3190 C   0  0  0  0  0  0  0  0  0  0  0  0
   10.3704   -4.9638   18.6510 C   0  0  0  0  0  0  0  0  0  0  0  0
    5.5935   -8.6419   17.4234 C   0  0  0  0  0  0  0  0  0  0  0  0
   13.0726   -4.6648   23.3394 O   0  0  0  0  0  0  0  0  0  0  0  0
    8.5955   -6.0705   17.3996 C   0  0  0  0  0  0  0  0  0  0  0  0
    4.6223   -8.3832   16.5030 C   0  0  0  0  0  0  0  0  0  0  0  0
   12.4690   -5.2624   19.9024 C   0  0  0  0  0  0  0  0  0  0  0  0
    3.2548   -9.9919   17.4189 C   0  0  0  0  0  0  0  0  0  0  0  0
   12.4767   -4.7393   22.1790 C   0  0  0  0  0  0  0  0  0  0  0  0
    7.8593   -5.3772   15.3569 N   0  0  0  0  0  0  0  0  0  0  0  0
    7.4412   -6.9038   16.9283 C   0  0  0  0  0  0  0  0  0  0  0  0
  1 21  4  0
  1 23  4  0
  2  5  1  0
  2 13  4  0
  2 16  4  0
  3  6  4  0
  3  7  4  0
  4 13  4  0
  4 19  4  0
  4 24  4  0
  6 23  4  0
  7 16  1  0
  7 21  4  0
  8 18  1  0
  9 20  4  0
  9 22  4  0
 10 17  1  0
 10 25  1  0
 11 16  4  0
 11 19  4  0
 12 15  4  0
 12 22  4  0
 14 24  4  0
 14 25  4  0
 15 17  4  0
 17 20  4  0
 18 23  1  0
 19 25  4  0
M  END
$$$$

 Created by Python create_sdf_string function

 25 28  0  0  0  0  0  0  0  0999 V2000
   13.1533   -5.2399   21.0682 C   0  0  0  0  0  0  0  0  0  0  0  0
   10.4729   -4.0295   17.6135 C   0  0  0  0  0  0  0  0  0  0  0  0
   10.4789   -4.3641   20.9564 C   0  0  0  0  0  0  0  0  0  0  0  0
    8.7421   -5.1412   16.3650 C   0  0  0  0  0  0  0  0  0  0  0  0
   11.4353   -2.9204   17.8044 C   0  0  0  0  0  0  0  0  0  0  0  0
   11.1529   -4.3028   22.1277 C   0  0  0  0  0  0  0  0  0  0  0  0
   11.1290   -4.8502   19.8052 C   0  0  0  0  0  0  0  0  0  0  0  0
   12.4329   -4.2159   24.4224 C   0  0  0  0  0  0  0  0  0  0  0  0
    3.4740   -9.0387   16.5022 C   0  0  0  0  0  0  0  0  0  0  0  0
    6.8384   -7.9290   17.5282 N   0  0  0  0  0  0  0  0  0  0  0  0
    9.4126   -5.9853   18.4899 C   0  0  0  0  0  0  0  0  0  0  0  0
    4.2064  -10.3242   18.3302 C   0  0  0  0  0  0  0  0  0  0  0  0
    9.6599   -4.1551   16.4796 N   0  0  0  0  0  0  0  0  0  0  0  0
    7.0644   -6.4612   15.7375 N   0  0  0  0  0  0  0  0  0  0  0  0
    5.3549   -9.6322   18.3190 C   0  0  0  0  0  0  0  0  0  0  0  0
   10.3704   -4.9638   18.6510 C   0  0  0  0  0  0  0  0  0  0  0  0
    5.5935   -8.6419   17.4234 C   0  0  0  0  0  0  0  0  0  0  0  0
   13.0726   -4.6648   23.3394 O   0  0  0  0  0  0  0  0  0  0  0  0
    8.5955   -6.0705   17.3996 C   0  0  0  0  0  0  0  0  0  0  0  0
    4.6223   -8.3832   16.5030 C   0  0  0  0  0  0  0  0  0  0  0  0
   12.4690   -5.2624   19.9024 C   0  0  0  0  0  0  0  0  0  0  0  0
    3.2548   -9.9919   17.4189 C   0  0  0  0  0  0  0  0  0  0  0  0
   12.4767   -4.7393   22.1790 C   0  0  0  0  0  0  0  0  0  0  0  0
    7.8593   -5.3772   15.3569 N   0  0  0  0  0  0  0  0  0  0  0  0
    7.4412   -6.9038   16.9283 C   0  0  0  0  0  0  0  0  0  0  0  0
  1 21  4  0
  1 23  4  0
  2  5  1  0
  2 13  4  0
  2 16  4  0
  3  6  4  0
  3  7  4  0
  4 13  4  0
  4 19  4  0
  4 24  4  0
  6 23  4  0
  7 16  1  0
  7 21  4  0
  8 18  1  0
  9 20  4  0
  9 22  4  0
 10 17  1  0
 10 25  1  0
 11 16  4  0
 11 19  4  0
 12 15  4  0
 12 22  4  0
 14 24  4  0
 14 25  4  0
 15 17  4  0
 17 20  4  0
 18 23  1  0
 19 25  4  0
M  END
$$$$

 Created by Python create_sdf_string function

 25 28  0  0  0  0  0  0  0  0999 V2000
   13.1533   -5.2399   21.0682 C   0  0  0  0  0  0  0  0  0  0  0  0
   10.4729   -4.0295   17.6135 C   0  0  0  0  0  0  0  0  0  0  0  0
   10.4789   -4.3641   20.9564 C   0  0  0  0  0  0  0  0  0  0  0  0
    8.7421   -5.1412   16.3650 C   0  0  0  0  0  0  0  0  0  0  0  0
   11.4353   -2.9204   17.8044 C   0  0  0  0  0  0  0  0  0  0  0  0
   11.1529   -4.3028   22.1277 C   0  0  0  0  0  0  0  0  0  0  0  0
   11.1290   -4.8502   19.8052 C   0  0  0  0  0  0  0  0  0  0  0  0
   12.4329   -4.2159   24.4224 C   0  0  0  0  0  0  0  0  0  0  0  0
    3.4740   -9.0387   16.5022 C   0  0  0  0  0  0  0  0  0  0  0  0
    6.8384   -7.9290   17.5282 N   0  0  0  0  0  0  0  0  0  0  0  0
    9.4126   -5.9853   18.4899 C   0  0  0  0  0  0  0  0  0  0  0  0
    4.2064  -10.3242   18.3302 C   0  0  0  0  0  0  0  0  0  0  0  0
    9.6599   -4.1551   16.4796 N   0  0  0  0  0  0  0  0  0  0  0  0
    7.0644   -6.4612   15.7375 N   0  0  0  0  0  0  0  0  0  0  0  0
    5.3549   -9.6322   18.3190 C   0  0  0  0  0  0  0  0  0  0  0  0
   10.3704   -4.9638   18.6510 C   0  0  0  0  0  0  0  0  0  0  0  0
    5.5935   -8.6419   17.4234 C   0  0  0  0  0  0  0  0  0  0  0  0
   13.0726   -4.6648   23.3394 O   0  0  0  0  0  0  0  0  0  0  0  0
    8.5955   -6.0705   17.3996 C   0  0  0  0  0  0  0  0  0  0  0  0
    4.6223   -8.3832   16.5030 C   0  0  0  0  0  0  0  0  0  0  0  0
   12.4690   -5.2624   19.9024 C   0  0  0  0  0  0  0  0  0  0  0  0
    3.2548   -9.9919   17.4189 C   0  0  0  0  0  0  0  0  0  0  0  0
   12.4767   -4.7393   22.1790 C   0  0  0  0  0  0  0  0  0  0  0  0
    7.8593   -5.3772   15.3569 N   0  0  0  0  0  0  0  0  0  0  0  0
    7.4412   -6.9038   16.9283 C   0  0  0  0  0  0  0  0  0  0  0  0
  1 21  4  0
  1 23  4  0
  2  5  1  0
  2 13  4  0
  2 16  4  0
  3  6  4  0
  3  7  4  0
  4 13  4  0
  4 19  4  0
  4 24  4  0
  6 23  4  0
  7 16  1  0
  7 21  4  0
  8 18  1  0
  9 20  4  0
  9 22  4  0
 10 17  1  0
 10 25  1  0
 11 16  4  0
 11 19  4  0
 12 15  4  0
 12 22  4  0
 14 24  4  0
 14 25  4  0
 15 17  4  0
 17 20  4  0
 18 23  1  0
 19 25  4  0
M  END
$$$$

 Created by Python create_sdf_string function

 25 28  0  0  0  0  0  0  0  0999 V2000
   13.1533   -5.2399   21.0682 C   0  0  0  0  0  0  0  0  0  0  0  0
   10.4729   -4.0295   17.6135 C   0  0  0  0  0  0  0  0  0  0  0  0
   10.4789   -4.3641   20.9564 C   0  0  0  0  0  0  0  0  0  0  0  0
    8.7421   -5.1412   16.3650 C   0  0  0  0  0  0  0  0  0  0  0  0
   11.4353   -2.9204   17.8044 C   0  0  0  0  0  0  0  0  0  0  0  0
   11.1529   -4.3028   22.1277 C   0  0  0  0  0  0  0  0  0  0  0  0
   11.1290   -4.8502   19.8052 C   0  0  0  0  0  0  0  0  0  0  0  0
   12.4329   -4.2159   24.4224 C   0  0  0  0  0  0  0  0  0  0  0  0
    3.4740   -9.0387   16.5022 C   0  0  0  0  0  0  0  0  0  0  0  0
    6.8384   -7.9290   17.5282 N   0  0  0  0  0  0  0  0  0  0  0  0
    9.4126   -5.9853   18.4899 C   0  0  0  0  0  0  0  0  0  0  0  0
    4.2064  -10.3242   18.3302 C   0  0  0  0  0  0  0  0  0  0  0  0
    9.6599   -4.1551   16.4796 N   0  0  0  0  0  0  0  0  0  0  0  0
    7.0644   -6.4612   15.7375 N   0  0  0  0  0  0  0  0  0  0  0  0
    5.3549   -9.6322   18.3190 C   0  0  0  0  0  0  0  0  0  0  0  0
   10.3704   -4.9638   18.6510 C   0  0  0  0  0  0  0  0  0  0  0  0
    5.5935   -8.6419   17.4234 C   0  0  0  0  0  0  0  0  0  0  0  0
   13.0726   -4.6648   23.3394 O   0  0  0  0  0  0  0  0  0  0  0  0
    8.5955   -6.0705   17.3996 C   0  0  0  0  0  0  0  0  0  0  0  0
    4.6223   -8.3832   16.5030 C   0  0  0  0  0  0  0  0  0  0  0  0
   12.4690   -5.2624   19.9024 C   0  0  0  0  0  0  0  0  0  0  0  0
    3.2548   -9.9919   17.4189 C   0  0  0  0  0  0  0  0  0  0  0  0
   12.4767   -4.7393   22.1790 C   0  0  0  0  0  0  0  0  0  0  0  0
    7.8593   -5.3772   15.3569 N   0  0  0  0  0  0  0  0  0  0  0  0
    7.4412   -6.9038   16.9283 C   0  0  0  0  0  0  0  0  0  0  0  0
  1 21  4  0
  1 23  4  0
  2  5  1  0
  2 13  4  0
  2 16  4  0
  3  6  4  0
  3  7  4  0
  4 13  4  0
  4 19  4  0
  4 24  4  0
  6 23  4  0
  7 16  1  0
  7 21  4  0
  8 18  1  0
  9 20  4  0
  9 22  4  0
 10 17  1  0
 10 25  1  0
 11 16  4  0
 11 19  4  0
 12 15  4  0
 12 22  4  0
 14 24  4  0
 14 25  4  0
 15 17  4  0
 17 20  4  0
 18 23  1  0
 19 25  4  0
M  END
$$$$

 Created by Python create_sdf_string function

 25 28  0  0  0  0  0  0  0  0999 V2000
   13.1533   -5.2399   21.0682 C   0  0  0  0  0  0  0  0  0  0  0  0
   10.4729   -4.0295   17.6135 C   0  0  0  0  0  0  0  0  0  0  0  0
   10.4789   -4.3641   20.9564 C   0  0  0  0  0  0  0  0  0  0  0  0
    8.7421   -5.1412   16.3650 C   0  0  0  0  0  0  0  0  0  0  0  0
   11.4353   -2.9204   17.8044 C   0  0  0  0  0  0  0  0  0  0  0  0
   11.1529   -4.3028   22.1277 C   0  0  0  0  0  0  0  0  0  0  0  0
   11.1290   -4.8502   19.8052 C   0  0  0  0  0  0  0  0  0  0  0  0
   12.4329   -4.2159   24.4224 C   0  0  0  0  0  0  0  0  0  0  0  0
    3.4740   -9.0387   16.5022 C   0  0  0  0  0  0  0  0  0  0  0  0
    6.8384   -7.9290   17.5282 N   0  0  0  0  0  0  0  0  0  0  0  0
    9.4126   -5.9853   18.4899 C   0  0  0  0  0  0  0  0  0  0  0  0
    4.2064  -10.3242   18.3302 C   0  0  0  0  0  0  0  0  0  0  0  0
    9.6599   -4.1551   16.4796 N   0  0  0  0  0  0  0  0  0  0  0  0
    7.0644   -6.4612   15.7375 N   0  0  0  0  0  0  0  0  0  0  0  0
    5.3549   -9.6322   18.3190 C   0  0  0  0  0  0  0  0  0  0  0  0
   10.3704   -4.9638   18.6510 C   0  0  0  0  0  0  0  0  0  0  0  0
    5.5935   -8.6419   17.4234 C   0  0  0  0  0  0  0  0  0  0  0  0
   13.0726   -4.6648   23.3394 O   0  0  0  0  0  0  0  0  0  0  0  0
    8.5955   -6.0705   17.3996 C   0  0  0  0  0  0  0  0  0  0  0  0
    4.6223   -8.3832   16.5030 C   0  0  0  0  0  0  0  0  0  0  0  0
   12.4690   -5.2624   19.9024 C   0  0  0  0  0  0  0  0  0  0  0  0
    3.2548   -9.9919   17.4189 C   0  0  0  0  0  0  0  0  0  0  0  0
   12.4767   -4.7393   22.1790 C   0  0  0  0  0  0  0  0  0  0  0  0
    7.8593   -5.3772   15.3569 N   0  0  0  0  0  0  0  0  0  0  0  0
    7.4412   -6.9038   16.9283 C   0  0  0  0  0  0  0  0  0  0  0  0
  1 21  4  0
  1 23  4  0
  2  5  1  0
  2 13  4  0
  2 16  4  0
  3  6  4  0
  3  7  4  0
  4 13  4  0
  4 19  4  0
  4 24  4  0
  6 23  4  0
  7 16  1  0
  7 21  4  0
  8 18  1  0
  9 20  4  0
  9 22  4  0
 10 17  1  0
 10 25  1  0
 11 16  4  0
 11 19  4  0
 12 15  4  0
 12 22  4  0
 14 24  4  0
 14 25  4  0
 15 17  4  0
 17 20  4  0
 18 23  1  0
 19 25  4  0
M  END
$$$$

 Created by Python create_sdf_string function

 25 28  0  0  0  0  0  0  0  0999 V2000
   13.1533   -5.2399   21.0682 C   0  0  0  0  0  0  0  0  0  0  0  0
   10.4729   -4.0295   17.6135 C   0  0  0  0  0  0  0  0  0  0  0  0
   10.4789   -4.3641   20.9564 C   0  0  0  0  0  0  0  0  0  0  0  0
    8.7421   -5.1412   16.3650 C   0  0  0  0  0  0  0  0  0  0  0  0
   11.4353   -2.9204   17.8044 C   0  0  0  0  0  0  0  0  0  0  0  0
   11.1529   -4.3028   22.1277 C   0  0  0  0  0  0  0  0  0  0  0  0
   11.1290   -4.8502   19.8052 C   0  0  0  0  0  0  0  0  0  0  0  0
   12.4329   -4.2159   24.4224 C   0  0  0  0  0  0  0  0  0  0  0  0
    3.4740   -9.0387   16.5022 C   0  0  0  0  0  0  0  0  0  0  0  0
    6.8384   -7.9290   17.5282 N   0  0  0  0  0  0  0  0  0  0  0  0
    9.4126   -5.9853   18.4899 C   0  0  0  0  0  0  0  0  0  0  0  0
    4.2064  -10.3242   18.3302 C   0  0  0  0  0  0  0  0  0  0  0  0
    9.6599   -4.1551   16.4796 N   0  0  0  0  0  0  0  0  0  0  0  0
    7.0644   -6.4612   15.7375 N   0  0  0  0  0  0  0  0  0  0  0  0
    5.3549   -9.6322   18.3190 C   0  0  0  0  0  0  0  0  0  0  0  0
   10.3704   -4.9638   18.6510 C   0  0  0  0  0  0  0  0  0  0  0  0
    5.5935   -8.6419   17.4234 C   0  0  0  0  0  0  0  0  0  0  0  0
   13.0726   -4.6648   23.3394 O   0  0  0  0  0  0  0  0  0  0  0  0
    8.5955   -6.0705   17.3996 C   0  0  0  0  0  0  0  0  0  0  0  0
    4.6223   -8.3832   16.5030 C   0  0  0  0  0  0  0  0  0  0  0  0
   12.4690   -5.2624   19.9024 C   0  0  0  0  0  0  0  0  0  0  0  0
    3.2548   -9.9919   17.4189 C   0  0  0  0  0  0  0  0  0  0  0  0
   12.4767   -4.7393   22.1790 C   0  0  0  0  0  0  0  0  0  0  0  0
    7.8593   -5.3772   15.3569 N   0  0  0  0  0  0  0  0  0  0  0  0
    7.4412   -6.9038   16.9283 C   0  0  0  0  0  0  0  0  0  0  0  0
  1 21  4  0
  1 23  4  0
  2  5  1  0
  2 13  4  0
  2 16  4  0
  3  6  4  0
  3  7  4  0
  4 13  4  0
  4 19  4  0
  4 24  4  0
  6 23  4  0
  7 16  1  0
  7 21  4  0
  8 18  1  0
  9 20  4  0
  9 22  4  0
 10 17  1  0
 10 25  1  0
 11 16  4  0
 11 19  4  0
 12 15  4  0
 12 22  4  0
 14 24  4  0
 14 25  4  0
 15 17  4  0
 17 20  4  0
 18 23  1  0
 19 25  4  0
M  END
$$$$

 Created by Python create_sdf_string function

 25 28  0  0  0  0  0  0  0  0999 V2000
   13.1533   -5.2399   21.0682 C   0  0  0  0  0  0  0  0  0  0  0  0
   10.4729   -4.0295   17.6135 C   0  0  0  0  0  0  0  0  0  0  0  0
   10.4789   -4.3641   20.9564 C   0  0  0  0  0  0  0  0  0  0  0  0
    8.7421   -5.1412   16.3650 C   0  0  0  0  0  0  0  0  0  0  0  0
   11.4353   -2.9204   17.8044 C   0  0  0  0  0  0  0  0  0  0  0  0
   11.1529   -4.3028   22.1277 C   0  0  0  0  0  0  0  0  0  0  0  0
   11.1290   -4.8502   19.8052 C   0  0  0  0  0  0  0  0  0  0  0  0
   12.4329   -4.2159   24.4224 C   0  0  0  0  0  0  0  0  0  0  0  0
    3.4740   -9.0387   16.5022 C   0  0  0  0  0  0  0  0  0  0  0  0
    6.8384   -7.9290   17.5282 N   0  0  0  0  0  0  0  0  0  0  0  0
    9.4126   -5.9853   18.4899 C   0  0  0  0  0  0  0  0  0  0  0  0
    4.2064  -10.3242   18.3302 C   0  0  0  0  0  0  0  0  0  0  0  0
    9.6599   -4.1551   16.4796 N   0  0  0  0  0  0  0  0  0  0  0  0
    7.0644   -6.4612   15.7375 N   0  0  0  0  0  0  0  0  0  0  0  0
    5.3549   -9.6322   18.3190 C   0  0  0  0  0  0  0  0  0  0  0  0
   10.3704   -4.9638   18.6510 C   0  0  0  0  0  0  0  0  0  0  0  0
    5.5935   -8.6419   17.4234 C   0  0  0  0  0  0  0  0  0  0  0  0
   13.0726   -4.6648   23.3394 O   0  0  0  0  0  0  0  0  0  0  0  0
    8.5955   -6.0705   17.3996 C   0  0  0  0  0  0  0  0  0  0  0  0
    4.6223   -8.3832   16.5030 C   0  0  0  0  0  0  0  0  0  0  0  0
   12.4690   -5.2624   19.9024 C   0  0  0  0  0  0  0  0  0  0  0  0
    3.2548   -9.9919   17.4189 C   0  0  0  0  0  0  0  0  0  0  0  0
   12.4767   -4.7393   22.1790 C   0  0  0  0  0  0  0  0  0  0  0  0
    7.8593   -5.3772   15.3569 N   0  0  0  0  0  0  0  0  0  0  0  0
    7.4412   -6.9038   16.9283 C   0  0  0  0  0  0  0  0  0  0  0  0
  1 21  4  0
  1 23  4  0
  2  5  1  0
  2 13  4  0
  2 16  4  0
  3  6  4  0
  3  7  4  0
  4 13  4  0
  4 19  4  0
  4 24  4  0
  6 23  4  0
  7 16  1  0
  7 21  4  0
  8 18  1  0
  9 20  4  0
  9 22  4  0
 10 17  1  0
 10 25  1  0
 11 16  4  0
 11 19  4  0
 12 15  4  0
 12 22  4  0
 14 24  4  0
 14 25  4  0
 15 17  4  0
 17 20  4  0
 18 23  1  0
 19 25  4  0
M  END
$$$$

 Created by Python create_sdf_string function

 25 28  0  0  0  0  0  0  0  0999 V2000
   13.1533   -5.2399   21.0682 C   0  0  0  0  0  0  0  0  0  0  0  0
   10.4729   -4.0295   17.6135 C   0  0  0  0  0  0  0  0  0  0  0  0
   10.4789   -4.3641   20.9564 C   0  0  0  0  0  0  0  0  0  0  0  0
    8.7421   -5.1412   16.3650 C   0  0  0  0  0  0  0  0  0  0  0  0
   11.4353   -2.9204   17.8044 C   0  0  0  0  0  0  0  0  0  0  0  0
   11.1529   -4.3028   22.1277 C   0  0  0  0  0  0  0  0  0  0  0  0
   11.1290   -4.8502   19.8052 C   0  0  0  0  0  0  0  0  0  0  0  0
   12.4329   -4.2159   24.4224 C   0  0  0  0  0  0  0  0  0  0  0  0
    3.4740   -9.0387   16.5022 C   0  0  0  0  0  0  0  0  0  0  0  0
    6.8384   -7.9290   17.5282 N   0  0  0  0  0  0  0  0  0  0  0  0
    9.4126   -5.9853   18.4899 C   0  0  0  0  0  0  0  0  0  0  0  0
    4.2064  -10.3242   18.3302 C   0  0  0  0  0  0  0  0  0  0  0  0
    9.6599   -4.1551   16.4796 N   0  0  0  0  0  0  0  0  0  0  0  0
    7.0644   -6.4612   15.7375 N   0  0  0  0  0  0  0  0  0  0  0  0
    5.3549   -9.6322   18.3190 C   0  0  0  0  0  0  0  0  0  0  0  0
   10.3704   -4.9638   18.6510 C   0  0  0  0  0  0  0  0  0  0  0  0
    5.5935   -8.6419   17.4234 C   0  0  0  0  0  0  0  0  0  0  0  0
   13.0726   -4.6648   23.3394 O   0  0  0  0  0  0  0  0  0  0  0  0
    8.5955   -6.0705   17.3996 C   0  0  0  0  0  0  0  0  0  0  0  0
    4.6223   -8.3832   16.5030 C   0  0  0  0  0  0  0  0  0  0  0  0
   12.4690   -5.2624   19.9024 C   0  0  0  0  0  0  0  0  0  0  0  0
    3.2548   -9.9919   17.4189 C   0  0  0  0  0  0  0  0  0  0  0  0
   12.4767   -4.7393   22.1790 C   0  0  0  0  0  0  0  0  0  0  0  0
    7.8593   -5.3772   15.3569 N   0  0  0  0  0  0  0  0  0  0  0  0
    7.4412   -6.9038   16.9283 C   0  0  0  0  0  0  0  0  0  0  0  0
  1 21  4  0
  1 23  4  0
  2  5  1  0
  2 13  4  0
  2 16  4  0
  3  6  4  0
  3  7  4  0
  4 13  4  0
  4 19  4  0
  4 24  4  0
  6 23  4  0
  7 16  1  0
  7 21  4  0
  8 18  1  0
  9 20  4  0
  9 22  4  0
 10 17  1  0
 10 25  1  0
 11 16  4  0
 11 19  4  0
 12 15  4  0
 12 22  4  0
 14 24  4  0
 14 25  4  0
 15 17  4  0
 17 20  4  0
 18 23  1  0
 19 25  4  0
M  END
$$$$

 Created by Python create_sdf_string function

 25 28  0  0  0  0  0  0  0  0999 V2000
   13.1533   -5.2399   21.0682 C   0  0  0  0  0  0  0  0  0  0  0  0
   10.4729   -4.0295   17.6135 C   0  0  0  0  0  0  0  0  0  0  0  0
   10.4789   -4.3641   20.9564 C   0  0  0  0  0  0  0  0  0  0  0  0
    8.7421   -5.1412   16.3650 C   0  0  0  0  0  0  0  0  0  0  0  0
   11.4353   -2.9204   17.8044 C   0  0  0  0  0  0  0  0  0  0  0  0
   11.1529   -4.3028   22.1277 C   0  0  0  0  0  0  0  0  0  0  0  0
   11.1290   -4.8502   19.8052 C   0  0  0  0  0  0  0  0  0  0  0  0
   12.4329   -4.2159   24.4224 C   0  0  0  0  0  0  0  0  0  0  0  0
    3.4740   -9.0387   16.5022 C   0  0  0  0  0  0  0  0  0  0  0  0
    6.8384   -7.9290   17.5282 N   0  0  0  0  0  0  0  0  0  0  0  0
    9.4126   -5.9853   18.4899 C   0  0  0  0  0  0  0  0  0  0  0  0
    4.2064  -10.3242   18.3302 C   0  0  0  0  0  0  0  0  0  0  0  0
    9.6599   -4.1551   16.4796 N   0  0  0  0  0  0  0  0  0  0  0  0
    7.0644   -6.4612   15.7375 N   0  0  0  0  0  0  0  0  0  0  0  0
    5.3549   -9.6322   18.3190 C   0  0  0  0  0  0  0  0  0  0  0  0
   10.3704   -4.9638   18.6510 C   0  0  0  0  0  0  0  0  0  0  0  0
    5.5935   -8.6419   17.4234 C   0  0  0  0  0  0  0  0  0  0  0  0
   13.0726   -4.6648   23.3394 O   0  0  0  0  0  0  0  0  0  0  0  0
    8.5955   -6.0705   17.3996 C   0  0  0  0  0  0  0  0  0  0  0  0
    4.6223   -8.3832   16.5030 C   0  0  0  0  0  0  0  0  0  0  0  0
   12.4690   -5.2624   19.9024 C   0  0  0  0  0  0  0  0  0  0  0  0
    3.2548   -9.9919   17.4189 C   0  0  0  0  0  0  0  0  0  0  0  0
   12.4767   -4.7393   22.1790 C   0  0  0  0  0  0  0  0  0  0  0  0
    7.8593   -5.3772   15.3569 N   0  0  0  0  0  0  0  0  0  0  0  0
    7.4412   -6.9038   16.9283 C   0  0  0  0  0  0  0  0  0  0  0  0
  1 21  4  0
  1 23  4  0
  2  5  1  0
  2 13  4  0
  2 16  4  0
  3  6  4  0
  3  7  4  0
  4 13  4  0
  4 19  4  0
  4 24  4  0
  6 23  4  0
  7 16  1  0
  7 21  4  0
  8 18  1  0
  9 20  4  0
  9 22  4  0
 10 17  1  0
 10 25  1  0
 11 16  4  0
 11 19  4  0
 12 15  4  0
 12 22  4  0
 14 24  4  0
 14 25  4  0
 15 17  4  0
 17 20  4  0
 18 23  1  0
 19 25  4  0
M  END
$$$$

 Created by Python create_sdf_string function

 25 28  0  0  0  0  0  0  0  0999 V2000
   13.1533   -5.2399   21.0682 C   0  0  0  0  0  0  0  0  0  0  0  0
   10.4729   -4.0295   17.6135 C   0  0  0  0  0  0  0  0  0  0  0  0
   10.4789   -4.3641   20.9564 C   0  0  0  0  0  0  0  0  0  0  0  0
    8.7421   -5.1412   16.3650 C   0  0  0  0  0  0  0  0  0  0  0  0
   11.4353   -2.9204   17.8044 C   0  0  0  0  0  0  0  0  0  0  0  0
   11.1529   -4.3028   22.1277 C   0  0  0  0  0  0  0  0  0  0  0  0
   11.1290   -4.8502   19.8052 C   0  0  0  0  0  0  0  0  0  0  0  0
   12.4329   -4.2159   24.4224 C   0  0  0  0  0  0  0  0  0  0  0  0
    3.4740   -9.0387   16.5022 C   0  0  0  0  0  0  0  0  0  0  0  0
    6.8384   -7.9290   17.5282 N   0  0  0  0  0  0  0  0  0  0  0  0
    9.4126   -5.9853   18.4899 C   0  0  0  0  0  0  0  0  0  0  0  0
    4.2064  -10.3242   18.3302 C   0  0  0  0  0  0  0  0  0  0  0  0
    9.6599   -4.1551   16.4796 N   0  0  0  0  0  0  0  0  0  0  0  0
    7.0644   -6.4612   15.7375 N   0  0  0  0  0  0  0  0  0  0  0  0
    5.3549   -9.6322   18.3190 C   0  0  0  0  0  0  0  0  0  0  0  0
   10.3704   -4.9638   18.6510 C   0  0  0  0  0  0  0  0  0  0  0  0
    5.5935   -8.6419   17.4234 C   0  0  0  0  0  0  0  0  0  0  0  0
   13.0726   -4.6648   23.3394 O   0  0  0  0  0  0  0  0  0  0  0  0
    8.5955   -6.0705   17.3996 C   0  0  0  0  0  0  0  0  0  0  0  0
    4.6223   -8.3832   16.5030 C   0  0  0  0  0  0  0  0  0  0  0  0
   12.4690   -5.2624   19.9024 C   0  0  0  0  0  0  0  0  0  0  0  0
    3.2548   -9.9919   17.4189 C   0  0  0  0  0  0  0  0  0  0  0  0
   12.4767   -4.7393   22.1790 C   0  0  0  0  0  0  0  0  0  0  0  0
    7.8593   -5.3772   15.3569 N   0  0  0  0  0  0  0  0  0  0  0  0
    7.4412   -6.9038   16.9283 C   0  0  0  0  0  0  0  0  0  0  0  0
  1 21  4  0
  1 23  4  0
  2  5  1  0
  2 13  4  0
  2 16  4  0
  3  6  4  0
  3  7  4  0
  4 13  4  0
  4 19  4  0
  4 24  4  0
  6 23  4  0
  7 16  1  0
  7 21  4  0
  8 18  1  0
  9 20  4  0
  9 22  4  0
 10 17  1  0
 10 25  1  0
 11 16  4  0
 11 19  4  0
 12 15  4  0
 12 22  4  0
 14 24  4  0
 14 25  4  0
 15 17  4  0
 17 20  4  0
 18 23  1  0
 19 25  4  0
M  END
$$$$

 Created by Python create_sdf_string function

 25 28  0  0  0  0  0  0  0  0999 V2000
   13.1533   -5.2399   21.0682 C   0  0  0  0  0  0  0  0  0  0  0  0
   10.4729   -4.0295   17.6135 C   0  0  0  0  0  0  0  0  0  0  0  0
   10.4789   -4.3641   20.9564 C   0  0  0  0  0  0  0  0  0  0  0  0
    8.7421   -5.1412   16.3650 C   0  0  0  0  0  0  0  0  0  0  0  0
   11.4353   -2.9204   17.8044 C   0  0  0  0  0  0  0  0  0  0  0  0
   11.1529   -4.3028   22.1277 C   0  0  0  0  0  0  0  0  0  0  0  0
   11.1290   -4.8502   19.8052 C   0  0  0  0  0  0  0  0  0  0  0  0
   12.4329   -4.2159   24.4224 C   0  0  0  0  0  0  0  0  0  0  0  0
    3.4740   -9.0387   16.5022 C   0  0  0  0  0  0  0  0  0  0  0  0
    6.8384   -7.9290   17.5282 N   0  0  0  0  0  0  0  0  0  0  0  0
    9.4126   -5.9853   18.4899 C   0  0  0  0  0  0  0  0  0  0  0  0
    4.2064  -10.3242   18.3302 C   0  0  0  0  0  0  0  0  0  0  0  0
    9.6599   -4.1551   16.4796 N   0  0  0  0  0  0  0  0  0  0  0  0
    7.0644   -6.4612   15.7375 N   0  0  0  0  0  0  0  0  0  0  0  0
    5.3549   -9.6322   18.3190 C   0  0  0  0  0  0  0  0  0  0  0  0
   10.3704   -4.9638   18.6510 C   0  0  0  0  0  0  0  0  0  0  0  0
    5.5935   -8.6419   17.4234 C   0  0  0  0  0  0  0  0  0  0  0  0
   13.0726   -4.6648   23.3394 O   0  0  0  0  0  0  0  0  0  0  0  0
    8.5955   -6.0705   17.3996 C   0  0  0  0  0  0  0  0  0  0  0  0
    4.6223   -8.3832   16.5030 C   0  0  0  0  0  0  0  0  0  0  0  0
   12.4690   -5.2624   19.9024 C   0  0  0  0  0  0  0  0  0  0  0  0
    3.2548   -9.9919   17.4189 C   0  0  0  0  0  0  0  0  0  0  0  0
   12.4767   -4.7393   22.1790 C   0  0  0  0  0  0  0  0  0  0  0  0
    7.8593   -5.3772   15.3569 N   0  0  0  0  0  0  0  0  0  0  0  0
    7.4412   -6.9038   16.9283 C   0  0  0  0  0  0  0  0  0  0  0  0
  1 21  4  0
  1 23  4  0
  2  5  1  0
  2 13  4  0
  2 16  4  0
  3  6  4  0
  3  7  4  0
  4 13  4  0
  4 19  4  0
  4 24  4  0
  6 23  4  0
  7 16  1  0
  7 21  4  0
  8 18  1  0
  9 20  4  0
  9 22  4  0
 10 17  1  0
 10 25  1  0
 11 16  4  0
 11 19  4  0
 12 15  4  0
 12 22  4  0
 14 24  4  0
 14 25  4  0
 15 17  4  0
 17 20  4  0
 18 23  1  0
 19 25  4  0
M  END
$$$$

 Created by Python create_sdf_string function

 25 28  0  0  0  0  0  0  0  0999 V2000
   13.1533   -5.2399   21.0682 C   0  0  0  0  0  0  0  0  0  0  0  0
   10.4729   -4.0295   17.6135 C   0  0  0  0  0  0  0  0  0  0  0  0
   10.4789   -4.3641   20.9564 C   0  0  0  0  0  0  0  0  0  0  0  0
    8.7421   -5.1412   16.3650 C   0  0  0  0  0  0  0  0  0  0  0  0
   11.4353   -2.9204   17.8044 C   0  0  0  0  0  0  0  0  0  0  0  0
   11.1529   -4.3028   22.1277 C   0  0  0  0  0  0  0  0  0  0  0  0
   11.1290   -4.8502   19.8052 C   0  0  0  0  0  0  0  0  0  0  0  0
   12.4329   -4.2159   24.4224 C   0  0  0  0  0  0  0  0  0  0  0  0
    3.4740   -9.0387   16.5022 C   0  0  0  0  0  0  0  0  0  0  0  0
    6.8384   -7.9290   17.5282 N   0  0  0  0  0  0  0  0  0  0  0  0
    9.4126   -5.9853   18.4899 C   0  0  0  0  0  0  0  0  0  0  0  0
    4.2064  -10.3242   18.3302 C   0  0  0  0  0  0  0  0  0  0  0  0
    9.6599   -4.1551   16.4796 N   0  0  0  0  0  0  0  0  0  0  0  0
    7.0644   -6.4612   15.7375 N   0  0  0  0  0  0  0  0  0  0  0  0
    5.3549   -9.6322   18.3190 C   0  0  0  0  0  0  0  0  0  0  0  0
   10.3704   -4.9638   18.6510 C   0  0  0  0  0  0  0  0  0  0  0  0
    5.5935   -8.6419   17.4234 C   0  0  0  0  0  0  0  0  0  0  0  0
   13.0726   -4.6648   23.3394 O   0  0  0  0  0  0  0  0  0  0  0  0
    8.5955   -6.0705   17.3996 C   0  0  0  0  0  0  0  0  0  0  0  0
    4.6223   -8.3832   16.5030 C   0  0  0  0  0  0  0  0  0  0  0  0
   12.4690   -5.2624   19.9024 C   0  0  0  0  0  0  0  0  0  0  0  0
    3.2548   -9.9919   17.4189 C   0  0  0  0  0  0  0  0  0  0  0  0
   12.4767   -4.7393   22.1790 C   0  0  0  0  0  0  0  0  0  0  0  0
    7.8593   -5.3772   15.3569 N   0  0  0  0  0  0  0  0  0  0  0  0
    7.4412   -6.9038   16.9283 C   0  0  0  0  0  0  0  0  0  0  0  0
  1 21  4  0
  1 23  4  0
  2  5  1  0
  2 13  4  0
  2 16  4  0
  3  6  4  0
  3  7  4  0
  4 13  4  0
  4 19  4  0
  4 24  4  0
  6 23  4  0
  7 16  1  0
  7 21  4  0
  8 18  1  0
  9 20  4  0
  9 22  4  0
 10 17  1  0
 10 25  1  0
 11 16  4  0
 11 19  4  0
 12 15  4  0
 12 22  4  0
 14 24  4  0
 14 25  4  0
 15 17  4  0
 17 20  4  0
 18 23  1  0
 19 25  4  0
M  END
$$$$

 Created by Python create_sdf_string function

 25 28  0  0  0  0  0  0  0  0999 V2000
   13.1533   -5.2399   21.0682 C   0  0  0  0  0  0  0  0  0  0  0  0
   10.4729   -4.0295   17.6135 C   0  0  0  0  0  0  0  0  0  0  0  0
   10.4789   -4.3641   20.9564 C   0  0  0  0  0  0  0  0  0  0  0  0
    8.7421   -5.1412   16.3650 C   0  0  0  0  0  0  0  0  0  0  0  0
   11.4353   -2.9204   17.8044 C   0  0  0  0  0  0  0  0  0  0  0  0
   11.1529   -4.3028   22.1277 C   0  0  0  0  0  0  0  0  0  0  0  0
   11.1290   -4.8502   19.8052 C   0  0  0  0  0  0  0  0  0  0  0  0
   12.4329   -4.2159   24.4224 C   0  0  0  0  0  0  0  0  0  0  0  0
    3.4740   -9.0387   16.5022 C   0  0  0  0  0  0  0  0  0  0  0  0
    6.8384   -7.9290   17.5282 N   0  0  0  0  0  0  0  0  0  0  0  0
    9.4126   -5.9853   18.4899 C   0  0  0  0  0  0  0  0  0  0  0  0
    4.2064  -10.3242   18.3302 C   0  0  0  0  0  0  0  0  0  0  0  0
    9.6599   -4.1551   16.4796 N   0  0  0  0  0  0  0  0  0  0  0  0
    7.0644   -6.4612   15.7375 N   0  0  0  0  0  0  0  0  0  0  0  0
    5.3549   -9.6322   18.3190 C   0  0  0  0  0  0  0  0  0  0  0  0
   10.3704   -4.9638   18.6510 C   0  0  0  0  0  0  0  0  0  0  0  0
    5.5935   -8.6419   17.4234 C   0  0  0  0  0  0  0  0  0  0  0  0
   13.0726   -4.6648   23.3394 O   0  0  0  0  0  0  0  0  0  0  0  0
    8.5955   -6.0705   17.3996 C   0  0  0  0  0  0  0  0  0  0  0  0
    4.6223   -8.3832   16.5030 C   0  0  0  0  0  0  0  0  0  0  0  0
   12.4690   -5.2624   19.9024 C   0  0  0  0  0  0  0  0  0  0  0  0
    3.2548   -9.9919   17.4189 C   0  0  0  0  0  0  0  0  0  0  0  0
   12.4767   -4.7393   22.1790 C   0  0  0  0  0  0  0  0  0  0  0  0
    7.8593   -5.3772   15.3569 N   0  0  0  0  0  0  0  0  0  0  0  0
    7.4412   -6.9038   16.9283 C   0  0  0  0  0  0  0  0  0  0  0  0
  1 21  4  0
  1 23  4  0
  2  5  1  0
  2 13  4  0
  2 16  4  0
  3  6  4  0
  3  7  4  0
  4 13  4  0
  4 19  4  0
  4 24  4  0
  6 23  4  0
  7 16  1  0
  7 21  4  0
  8 18  1  0
  9 20  4  0
  9 22  4  0
 10 17  1  0
 10 25  1  0
 11 16  4  0
 11 19  4  0
 12 15  4  0
 12 22  4  0
 14 24  4  0
 14 25  4  0
 15 17  4  0
 17 20  4  0
 18 23  1  0
 19 25  4  0
M  END
$$$$

 Created by Python create_sdf_string function

 25 28  0  0  0  0  0  0  0  0999 V2000
   13.1533   -5.2399   21.0682 C   0  0  0  0  0  0  0  0  0  0  0  0
   10.4729   -4.0295   17.6135 C   0  0  0  0  0  0  0  0  0  0  0  0
   10.4789   -4.3641   20.9564 C   0  0  0  0  0  0  0  0  0  0  0  0
    8.7421   -5.1412   16.3650 C   0  0  0  0  0  0  0  0  0  0  0  0
   11.4353   -2.9204   17.8044 C   0  0  0  0  0  0  0  0  0  0  0  0
   11.1529   -4.3028   22.1277 C   0  0  0  0  0  0  0  0  0  0  0  0
   11.1290   -4.8502   19.8052 C   0  0  0  0  0  0  0  0  0  0  0  0
   12.4329   -4.2159   24.4224 C   0  0  0  0  0  0  0  0  0  0  0  0
    3.4740   -9.0387   16.5022 C   0  0  0  0  0  0  0  0  0  0  0  0
    6.8384   -7.9290   17.5282 N   0  0  0  0  0  0  0  0  0  0  0  0
    9.4126   -5.9853   18.4899 C   0  0  0  0  0  0  0  0  0  0  0  0
    4.2064  -10.3242   18.3302 C   0  0  0  0  0  0  0  0  0  0  0  0
    9.6599   -4.1551   16.4796 N   0  0  0  0  0  0  0  0  0  0  0  0
    7.0644   -6.4612   15.7375 N   0  0  0  0  0  0  0  0  0  0  0  0
    5.3549   -9.6322   18.3190 C   0  0  0  0  0  0  0  0  0  0  0  0
   10.3704   -4.9638   18.6510 C   0  0  0  0  0  0  0  0  0  0  0  0
    5.5935   -8.6419   17.4234 C   0  0  0  0  0  0  0  0  0  0  0  0
   13.0726   -4.6648   23.3394 O   0  0  0  0  0  0  0  0  0  0  0  0
    8.5955   -6.0705   17.3996 C   0  0  0  0  0  0  0  0  0  0  0  0
    4.6223   -8.3832   16.5030 C   0  0  0  0  0  0  0  0  0  0  0  0
   12.4690   -5.2624   19.9024 C   0  0  0  0  0  0  0  0  0  0  0  0
    3.2548   -9.9919   17.4189 C   0  0  0  0  0  0  0  0  0  0  0  0
   12.4767   -4.7393   22.1790 C   0  0  0  0  0  0  0  0  0  0  0  0
    7.8593   -5.3772   15.3569 N   0  0  0  0  0  0  0  0  0  0  0  0
    7.4412   -6.9038   16.9283 C   0  0  0  0  0  0  0  0  0  0  0  0
  1 21  4  0
  1 23  4  0
  2  5  1  0
  2 13  4  0
  2 16  4  0
  3  6  4  0
  3  7  4  0
  4 13  4  0
  4 19  4  0
  4 24  4  0
  6 23  4  0
  7 16  1  0
  7 21  4  0
  8 18  1  0
  9 20  4  0
  9 22  4  0
 10 17  1  0
 10 25  1  0
 11 16  4  0
 11 19  4  0
 12 15  4  0
 12 22  4  0
 14 24  4  0
 14 25  4  0
 15 17  4  0
 17 20  4  0
 18 23  1  0
 19 25  4  0
M  END
$$$$

 Created by Python create_sdf_string function

 25 28  0  0  0  0  0  0  0  0999 V2000
   13.1533   -5.2399   21.0682 C   0  0  0  0  0  0  0  0  0  0  0  0
   10.4729   -4.0295   17.6135 C   0  0  0  0  0  0  0  0  0  0  0  0
   10.4789   -4.3641   20.9564 C   0  0  0  0  0  0  0  0  0  0  0  0
    8.7421   -5.1412   16.3650 C   0  0  0  0  0  0  0  0  0  0  0  0
   11.4353   -2.9204   17.8044 C   0  0  0  0  0  0  0  0  0  0  0  0
   11.1529   -4.3028   22.1277 C   0  0  0  0  0  0  0  0  0  0  0  0
   11.1290   -4.8502   19.8052 C   0  0  0  0  0  0  0  0  0  0  0  0
   12.4329   -4.2159   24.4224 C   0  0  0  0  0  0  0  0  0  0  0  0
    3.4740   -9.0387   16.5022 C   0  0  0  0  0  0  0  0  0  0  0  0
    6.8384   -7.9290   17.5282 N   0  0  0  0  0  0  0  0  0  0  0  0
    9.4126   -5.9853   18.4899 C   0  0  0  0  0  0  0  0  0  0  0  0
    4.2064  -10.3242   18.3302 C   0  0  0  0  0  0  0  0  0  0  0  0
    9.6599   -4.1551   16.4796 N   0  0  0  0  0  0  0  0  0  0  0  0
    7.0644   -6.4612   15.7375 N   0  0  0  0  0  0  0  0  0  0  0  0
    5.3549   -9.6322   18.3190 C   0  0  0  0  0  0  0  0  0  0  0  0
   10.3704   -4.9638   18.6510 C   0  0  0  0  0  0  0  0  0  0  0  0
    5.5935   -8.6419   17.4234 C   0  0  0  0  0  0  0  0  0  0  0  0
   13.0726   -4.6648   23.3394 O   0  0  0  0  0  0  0  0  0  0  0  0
    8.5955   -6.0705   17.3996 C   0  0  0  0  0  0  0  0  0  0  0  0
    4.6223   -8.3832   16.5030 C   0  0  0  0  0  0  0  0  0  0  0  0
   12.4690   -5.2624   19.9024 C   0  0  0  0  0  0  0  0  0  0  0  0
    3.2548   -9.9919   17.4189 C   0  0  0  0  0  0  0  0  0  0  0  0
   12.4767   -4.7393   22.1790 C   0  0  0  0  0  0  0  0  0  0  0  0
    7.8593   -5.3772   15.3569 N   0  0  0  0  0  0  0  0  0  0  0  0
    7.4412   -6.9038   16.9283 C   0  0  0  0  0  0  0  0  0  0  0  0
  1 21  4  0
  1 23  4  0
  2  5  1  0
  2 13  4  0
  2 16  4  0
  3  6  4  0
  3  7  4  0
  4 13  4  0
  4 19  4  0
  4 24  4  0
  6 23  4  0
  7 16  1  0
  7 21  4  0
  8 18  1  0
  9 20  4  0
  9 22  4  0
 10 17  1  0
 10 25  1  0
 11 16  4  0
 11 19  4  0
 12 15  4  0
 12 22  4  0
 14 24  4  0
 14 25  4  0
 15 17  4  0
 17 20  4  0
 18 23  1  0
 19 25  4  0
M  END
$$$$

 Created by Python create_sdf_string function

 25 28  0  0  0  0  0  0  0  0999 V2000
   13.1533   -5.2399   21.0682 C   0  0  0  0  0  0  0  0  0  0  0  0
   10.4729   -4.0295   17.6135 C   0  0  0  0  0  0  0  0  0  0  0  0
   10.4789   -4.3641   20.9564 C   0  0  0  0  0  0  0  0  0  0  0  0
    8.7421   -5.1412   16.3650 C   0  0  0  0  0  0  0  0  0  0  0  0
   11.4353   -2.9204   17.8044 C   0  0  0  0  0  0  0  0  0  0  0  0
   11.1529   -4.3028   22.1277 C   0  0  0  0  0  0  0  0  0  0  0  0
   11.1290   -4.8502   19.8052 C   0  0  0  0  0  0  0  0  0  0  0  0
   12.4329   -4.2159   24.4224 C   0  0  0  0  0  0  0  0  0  0  0  0
    3.4740   -9.0387   16.5022 C   0  0  0  0  0  0  0  0  0  0  0  0
    6.8384   -7.9290   17.5282 N   0  0  0  0  0  0  0  0  0  0  0  0
    9.4126   -5.9853   18.4899 C   0  0  0  0  0  0  0  0  0  0  0  0
    4.2064  -10.3242   18.3302 C   0  0  0  0  0  0  0  0  0  0  0  0
    9.6599   -4.1551   16.4796 N   0  0  0  0  0  0  0  0  0  0  0  0
    7.0644   -6.4612   15.7375 N   0  0  0  0  0  0  0  0  0  0  0  0
    5.3549   -9.6322   18.3190 C   0  0  0  0  0  0  0  0  0  0  0  0
   10.3704   -4.9638   18.6510 C   0  0  0  0  0  0  0  0  0  0  0  0
    5.5935   -8.6419   17.4234 C   0  0  0  0  0  0  0  0  0  0  0  0
   13.0726   -4.6648   23.3394 O   0  0  0  0  0  0  0  0  0  0  0  0
    8.5955   -6.0705   17.3996 C   0  0  0  0  0  0  0  0  0  0  0  0
    4.6223   -8.3832   16.5030 C   0  0  0  0  0  0  0  0  0  0  0  0
   12.4690   -5.2624   19.9024 C   0  0  0  0  0  0  0  0  0  0  0  0
    3.2548   -9.9919   17.4189 C   0  0  0  0  0  0  0  0  0  0  0  0
   12.4767   -4.7393   22.1790 C   0  0  0  0  0  0  0  0  0  0  0  0
    7.8593   -5.3772   15.3569 N   0  0  0  0  0  0  0  0  0  0  0  0
    7.4412   -6.9038   16.9283 C   0  0  0  0  0  0  0  0  0  0  0  0
  1 21  4  0
  1 23  4  0
  2  5  1  0
  2 13  4  0
  2 16  4  0
  3  6  4  0
  3  7  4  0
  4 13  4  0
  4 19  4  0
  4 24  4  0
  6 23  4  0
  7 16  1  0
  7 21  4  0
  8 18  1  0
  9 20  4  0
  9 22  4  0
 10 17  1  0
 10 25  1  0
 11 16  4  0
 11 19  4  0
 12 15  4  0
 12 22  4  0
 14 24  4  0
 14 25  4  0
 15 17  4  0
 17 20  4  0
 18 23  1  0
 19 25  4  0
M  END
$$$$

 Created by Python create_sdf_string function

 25 28  0  0  0  0  0  0  0  0999 V2000
   13.1533   -5.2399   21.0682 C   0  0  0  0  0  0  0  0  0  0  0  0
   10.4729   -4.0295   17.6135 C   0  0  0  0  0  0  0  0  0  0  0  0
   10.4789   -4.3641   20.9564 C   0  0  0  0  0  0  0  0  0  0  0  0
    8.7421   -5.1412   16.3650 C   0  0  0  0  0  0  0  0  0  0  0  0
   11.4353   -2.9204   17.8044 C   0  0  0  0  0  0  0  0  0  0  0  0
   11.1529   -4.3028   22.1277 C   0  0  0  0  0  0  0  0  0  0  0  0
   11.1290   -4.8502   19.8052 C   0  0  0  0  0  0  0  0  0  0  0  0
   12.4329   -4.2159   24.4224 C   0  0  0  0  0  0  0  0  0  0  0  0
    3.4740   -9.0387   16.5022 C   0  0  0  0  0  0  0  0  0  0  0  0
    6.8384   -7.9290   17.5282 N   0  0  0  0  0  0  0  0  0  0  0  0
    9.4126   -5.9853   18.4899 C   0  0  0  0  0  0  0  0  0  0  0  0
    4.2064  -10.3242   18.3302 C   0  0  0  0  0  0  0  0  0  0  0  0
    9.6599   -4.1551   16.4796 N   0  0  0  0  0  0  0  0  0  0  0  0
    7.0644   -6.4612   15.7375 N   0  0  0  0  0  0  0  0  0  0  0  0
    5.3549   -9.6322   18.3190 C   0  0  0  0  0  0  0  0  0  0  0  0
   10.3704   -4.9638   18.6510 C   0  0  0  0  0  0  0  0  0  0  0  0
    5.5935   -8.6419   17.4234 C   0  0  0  0  0  0  0  0  0  0  0  0
   13.0726   -4.6648   23.3394 O   0  0  0  0  0  0  0  0  0  0  0  0
    8.5955   -6.0705   17.3996 C   0  0  0  0  0  0  0  0  0  0  0  0
    4.6223   -8.3832   16.5030 C   0  0  0  0  0  0  0  0  0  0  0  0
   12.4690   -5.2624   19.9024 C   0  0  0  0  0  0  0  0  0  0  0  0
    3.2548   -9.9919   17.4189 C   0  0  0  0  0  0  0  0  0  0  0  0
   12.4767   -4.7393   22.1790 C   0  0  0  0  0  0  0  0  0  0  0  0
    7.8593   -5.3772   15.3569 N   0  0  0  0  0  0  0  0  0  0  0  0
    7.4412   -6.9038   16.9283 C   0  0  0  0  0  0  0  0  0  0  0  0
  1 21  4  0
  1 23  4  0
  2  5  1  0
  2 13  4  0
  2 16  4  0
  3  6  4  0
  3  7  4  0
  4 13  4  0
  4 19  4  0
  4 24  4  0
  6 23  4  0
  7 16  1  0
  7 21  4  0
  8 18  1  0
  9 20  4  0
  9 22  4  0
 10 17  1  0
 10 25  1  0
 11 16  4  0
 11 19  4  0
 12 15  4  0
 12 22  4  0
 14 24  4  0
 14 25  4  0
 15 17  4  0
 17 20  4  0
 18 23  1  0
 19 25  4  0
M  END
$$$$

 Created by Python create_sdf_string function

 25 28  0  0  0  0  0  0  0  0999 V2000
   13.1533   -5.2399   21.0682 C   0  0  0  0  0  0  0  0  0  0  0  0
   10.4729   -4.0295   17.6135 C   0  0  0  0  0  0  0  0  0  0  0  0
   10.4789   -4.3641   20.9564 C   0  0  0  0  0  0  0  0  0  0  0  0
    8.7421   -5.1412   16.3650 C   0  0  0  0  0  0  0  0  0  0  0  0
   11.4353   -2.9204   17.8044 C   0  0  0  0  0  0  0  0  0  0  0  0
   11.1529   -4.3028   22.1277 C   0  0  0  0  0  0  0  0  0  0  0  0
   11.1290   -4.8502   19.8052 C   0  0  0  0  0  0  0  0  0  0  0  0
   12.4329   -4.2159   24.4224 C   0  0  0  0  0  0  0  0  0  0  0  0
    3.4740   -9.0387   16.5022 C   0  0  0  0  0  0  0  0  0  0  0  0
    6.8384   -7.9290   17.5282 N   0  0  0  0  0  0  0  0  0  0  0  0
    9.4126   -5.9853   18.4899 C   0  0  0  0  0  0  0  0  0  0  0  0
    4.2064  -10.3242   18.3302 C   0  0  0  0  0  0  0  0  0  0  0  0
    9.6599   -4.1551   16.4796 N   0  0  0  0  0  0  0  0  0  0  0  0
    7.0644   -6.4612   15.7375 N   0  0  0  0  0  0  0  0  0  0  0  0
    5.3549   -9.6322   18.3190 C   0  0  0  0  0  0  0  0  0  0  0  0
   10.3704   -4.9638   18.6510 C   0  0  0  0  0  0  0  0  0  0  0  0
    5.5935   -8.6419   17.4234 C   0  0  0  0  0  0  0  0  0  0  0  0
   13.0726   -4.6648   23.3394 O   0  0  0  0  0  0  0  0  0  0  0  0
    8.5955   -6.0705   17.3996 C   0  0  0  0  0  0  0  0  0  0  0  0
    4.6223   -8.3832   16.5030 C   0  0  0  0  0  0  0  0  0  0  0  0
   12.4690   -5.2624   19.9024 C   0  0  0  0  0  0  0  0  0  0  0  0
    3.2548   -9.9919   17.4189 C   0  0  0  0  0  0  0  0  0  0  0  0
   12.4767   -4.7393   22.1790 C   0  0  0  0  0  0  0  0  0  0  0  0
    7.8593   -5.3772   15.3569 N   0  0  0  0  0  0  0  0  0  0  0  0
    7.4412   -6.9038   16.9283 C   0  0  0  0  0  0  0  0  0  0  0  0
  1 21  4  0
  1 23  4  0
  2  5  1  0
  2 13  4  0
  2 16  4  0
  3  6  4  0
  3  7  4  0
  4 13  4  0
  4 19  4  0
  4 24  4  0
  6 23  4  0
  7 16  1  0
  7 21  4  0
  8 18  1  0
  9 20  4  0
  9 22  4  0
 10 17  1  0
 10 25  1  0
 11 16  4  0
 11 19  4  0
 12 15  4  0
 12 22  4  0
 14 24  4  0
 14 25  4  0
 15 17  4  0
 17 20  4  0
 18 23  1  0
 19 25  4  0
M  END
$$$$

 Created by Python create_sdf_string function

 25 28  0  0  0  0  0  0  0  0999 V2000
   13.1533   -5.2399   21.0682 C   0  0  0  0  0  0  0  0  0  0  0  0
   10.4729   -4.0295   17.6135 C   0  0  0  0  0  0  0  0  0  0  0  0
   10.4789   -4.3641   20.9564 C   0  0  0  0  0  0  0  0  0  0  0  0
    8.7421   -5.1412   16.3650 C   0  0  0  0  0  0  0  0  0  0  0  0
   11.4353   -2.9204   17.8044 C   0  0  0  0  0  0  0  0  0  0  0  0
   11.1529   -4.3028   22.1277 C   0  0  0  0  0  0  0  0  0  0  0  0
   11.1290   -4.8502   19.8052 C   0  0  0  0  0  0  0  0  0  0  0  0
   12.4329   -4.2159   24.4224 C   0  0  0  0  0  0  0  0  0  0  0  0
    3.4740   -9.0387   16.5022 C   0  0  0  0  0  0  0  0  0  0  0  0
    6.8384   -7.9290   17.5282 N   0  0  0  0  0  0  0  0  0  0  0  0
    9.4126   -5.9853   18.4899 C   0  0  0  0  0  0  0  0  0  0  0  0
    4.2064  -10.3242   18.3302 C   0  0  0  0  0  0  0  0  0  0  0  0
    9.6599   -4.1551   16.4796 N   0  0  0  0  0  0  0  0  0  0  0  0
    7.0644   -6.4612   15.7375 N   0  0  0  0  0  0  0  0  0  0  0  0
    5.3549   -9.6322   18.3190 C   0  0  0  0  0  0  0  0  0  0  0  0
   10.3704   -4.9638   18.6510 C   0  0  0  0  0  0  0  0  0  0  0  0
    5.5935   -8.6419   17.4234 C   0  0  0  0  0  0  0  0  0  0  0  0
   13.0726   -4.6648   23.3394 O   0  0  0  0  0  0  0  0  0  0  0  0
    8.5955   -6.0705   17.3996 C   0  0  0  0  0  0  0  0  0  0  0  0
    4.6223   -8.3832   16.5030 C   0  0  0  0  0  0  0  0  0  0  0  0
   12.4690   -5.2624   19.9024 C   0  0  0  0  0  0  0  0  0  0  0  0
    3.2548   -9.9919   17.4189 C   0  0  0  0  0  0  0  0  0  0  0  0
   12.4767   -4.7393   22.1790 C   0  0  0  0  0  0  0  0  0  0  0  0
    7.8593   -5.3772   15.3569 N   0  0  0  0  0  0  0  0  0  0  0  0
    7.4412   -6.9038   16.9283 C   0  0  0  0  0  0  0  0  0  0  0  0
  1 21  4  0
  1 23  4  0
  2  5  1  0
  2 13  4  0
  2 16  4  0
  3  6  4  0
  3  7  4  0
  4 13  4  0
  4 19  4  0
  4 24  4  0
  6 23  4  0
  7 16  1  0
  7 21  4  0
  8 18  1  0
  9 20  4  0
  9 22  4  0
 10 17  1  0
 10 25  1  0
 11 16  4  0
 11 19  4  0
 12 15  4  0
 12 22  4  0
 14 24  4  0
 14 25  4  0
 15 17  4  0
 17 20  4  0
 18 23  1  0
 19 25  4  0
M  END
$$$$

 Created by Python create_sdf_string function

 25 28  0  0  0  0  0  0  0  0999 V2000
   13.1533   -5.2399   21.0682 C   0  0  0  0  0  0  0  0  0  0  0  0
   10.4729   -4.0295   17.6135 C   0  0  0  0  0  0  0  0  0  0  0  0
   10.4789   -4.3641   20.9564 C   0  0  0  0  0  0  0  0  0  0  0  0
    8.7421   -5.1412   16.3650 C   0  0  0  0  0  0  0  0  0  0  0  0
   11.4353   -2.9204   17.8044 C   0  0  0  0  0  0  0  0  0  0  0  0
   11.1529   -4.3028   22.1277 C   0  0  0  0  0  0  0  0  0  0  0  0
   11.1290   -4.8502   19.8052 C   0  0  0  0  0  0  0  0  0  0  0  0
   12.4329   -4.2159   24.4224 C   0  0  0  0  0  0  0  0  0  0  0  0
    3.4740   -9.0387   16.5022 C   0  0  0  0  0  0  0  0  0  0  0  0
    6.8384   -7.9290   17.5282 N   0  0  0  0  0  0  0  0  0  0  0  0
    9.4126   -5.9853   18.4899 C   0  0  0  0  0  0  0  0  0  0  0  0
    4.2064  -10.3242   18.3302 C   0  0  0  0  0  0  0  0  0  0  0  0
    9.6599   -4.1551   16.4796 N   0  0  0  0  0  0  0  0  0  0  0  0
    7.0644   -6.4612   15.7375 N   0  0  0  0  0  0  0  0  0  0  0  0
    5.3549   -9.6322   18.3190 C   0  0  0  0  0  0  0  0  0  0  0  0
   10.3704   -4.9638   18.6510 C   0  0  0  0  0  0  0  0  0  0  0  0
    5.5935   -8.6419   17.4234 C   0  0  0  0  0  0  0  0  0  0  0  0
   13.0726   -4.6648   23.3394 O   0  0  0  0  0  0  0  0  0  0  0  0
    8.5955   -6.0705   17.3996 C   0  0  0  0  0  0  0  0  0  0  0  0
    4.6223   -8.3832   16.5030 C   0  0  0  0  0  0  0  0  0  0  0  0
   12.4690   -5.2624   19.9024 C   0  0  0  0  0  0  0  0  0  0  0  0
    3.2548   -9.9919   17.4189 C   0  0  0  0  0  0  0  0  0  0  0  0
   12.4767   -4.7393   22.1790 C   0  0  0  0  0  0  0  0  0  0  0  0
    7.8593   -5.3772   15.3569 N   0  0  0  0  0  0  0  0  0  0  0  0
    7.4412   -6.9038   16.9283 C   0  0  0  0  0  0  0  0  0  0  0  0
  1 21  4  0
  1 23  4  0
  2  5  1  0
  2 13  4  0
  2 16  4  0
  3  6  4  0
  3  7  4  0
  4 13  4  0
  4 19  4  0
  4 24  4  0
  6 23  4  0
  7 16  1  0
  7 21  4  0
  8 18  1  0
  9 20  4  0
  9 22  4  0
 10 17  1  0
 10 25  1  0
 11 16  4  0
 11 19  4  0
 12 15  4  0
 12 22  4  0
 14 24  4  0
 14 25  4  0
 15 17  4  0
 17 20  4  0
 18 23  1  0
 19 25  4  0
M  END
$$$$

 Created by Python create_sdf_string function

 25 28  0  0  0  0  0  0  0  0999 V2000
   13.1533   -5.2399   21.0682 C   0  0  0  0  0  0  0  0  0  0  0  0
   10.4729   -4.0295   17.6135 C   0  0  0  0  0  0  0  0  0  0  0  0
   10.4789   -4.3641   20.9564 C   0  0  0  0  0  0  0  0  0  0  0  0
    8.7421   -5.1412   16.3650 C   0  0  0  0  0  0  0  0  0  0  0  0
   11.4353   -2.9204   17.8044 C   0  0  0  0  0  0  0  0  0  0  0  0
   11.1529   -4.3028   22.1277 C   0  0  0  0  0  0  0  0  0  0  0  0
   11.1290   -4.8502   19.8052 C   0  0  0  0  0  0  0  0  0  0  0  0
   12.4329   -4.2159   24.4224 C   0  0  0  0  0  0  0  0  0  0  0  0
    3.4740   -9.0387   16.5022 C   0  0  0  0  0  0  0  0  0  0  0  0
    6.8384   -7.9290   17.5282 N   0  0  0  0  0  0  0  0  0  0  0  0
    9.4126   -5.9853   18.4899 C   0  0  0  0  0  0  0  0  0  0  0  0
    4.2064  -10.3242   18.3302 C   0  0  0  0  0  0  0  0  0  0  0  0
    9.6599   -4.1551   16.4796 N   0  0  0  0  0  0  0  0  0  0  0  0
    7.0644   -6.4612   15.7375 N   0  0  0  0  0  0  0  0  0  0  0  0
    5.3549   -9.6322   18.3190 C   0  0  0  0  0  0  0  0  0  0  0  0
   10.3704   -4.9638   18.6510 C   0  0  0  0  0  0  0  0  0  0  0  0
    5.5935   -8.6419   17.4234 C   0  0  0  0  0  0  0  0  0  0  0  0
   13.0726   -4.6648   23.3394 O   0  0  0  0  0  0  0  0  0  0  0  0
    8.5955   -6.0705   17.3996 C   0  0  0  0  0  0  0  0  0  0  0  0
    4.6223   -8.3832   16.5030 C   0  0  0  0  0  0  0  0  0  0  0  0
   12.4690   -5.2624   19.9024 C   0  0  0  0  0  0  0  0  0  0  0  0
    3.2548   -9.9919   17.4189 C   0  0  0  0  0  0  0  0  0  0  0  0
   12.4767   -4.7393   22.1790 C   0  0  0  0  0  0  0  0  0  0  0  0
    7.8593   -5.3772   15.3569 N   0  0  0  0  0  0  0  0  0  0  0  0
    7.4412   -6.9038   16.9283 C   0  0  0  0  0  0  0  0  0  0  0  0
  1 21  4  0
  1 23  4  0
  2  5  1  0
  2 13  4  0
  2 16  4  0
  3  6  4  0
  3  7  4  0
  4 13  4  0
  4 19  4  0
  4 24  4  0
  6 23  4  0
  7 16  1  0
  7 21  4  0
  8 18  1  0
  9 20  4  0
  9 22  4  0
 10 17  1  0
 10 25  1  0
 11 16  4  0
 11 19  4  0
 12 15  4  0
 12 22  4  0
 14 24  4  0
 14 25  4  0
 15 17  4  0
 17 20  4  0
 18 23  1  0
 19 25  4  0
M  END
$$$$

 Created by Python create_sdf_string function

 25 28  0  0  0  0  0  0  0  0999 V2000
   13.1533   -5.2399   21.0682 C   0  0  0  0  0  0  0  0  0  0  0  0
   10.4729   -4.0295   17.6135 C   0  0  0  0  0  0  0  0  0  0  0  0
   10.4789   -4.3641   20.9564 C   0  0  0  0  0  0  0  0  0  0  0  0
    8.7421   -5.1412   16.3650 C   0  0  0  0  0  0  0  0  0  0  0  0
   11.4353   -2.9204   17.8044 C   0  0  0  0  0  0  0  0  0  0  0  0
   11.1529   -4.3028   22.1277 C   0  0  0  0  0  0  0  0  0  0  0  0
   11.1290   -4.8502   19.8052 C   0  0  0  0  0  0  0  0  0  0  0  0
   12.4329   -4.2159   24.4224 C   0  0  0  0  0  0  0  0  0  0  0  0
    3.4740   -9.0387   16.5022 C   0  0  0  0  0  0  0  0  0  0  0  0
    6.8384   -7.9290   17.5282 N   0  0  0  0  0  0  0  0  0  0  0  0
    9.4126   -5.9853   18.4899 C   0  0  0  0  0  0  0  0  0  0  0  0
    4.2064  -10.3242   18.3302 C   0  0  0  0  0  0  0  0  0  0  0  0
    9.6599   -4.1551   16.4796 N   0  0  0  0  0  0  0  0  0  0  0  0
    7.0644   -6.4612   15.7375 N   0  0  0  0  0  0  0  0  0  0  0  0
    5.3549   -9.6322   18.3190 C   0  0  0  0  0  0  0  0  0  0  0  0
   10.3704   -4.9638   18.6510 C   0  0  0  0  0  0  0  0  0  0  0  0
    5.5935   -8.6419   17.4234 C   0  0  0  0  0  0  0  0  0  0  0  0
   13.0726   -4.6648   23.3394 O   0  0  0  0  0  0  0  0  0  0  0  0
    8.5955   -6.0705   17.3996 C   0  0  0  0  0  0  0  0  0  0  0  0
    4.6223   -8.3832   16.5030 C   0  0  0  0  0  0  0  0  0  0  0  0
   12.4690   -5.2624   19.9024 C   0  0  0  0  0  0  0  0  0  0  0  0
    3.2548   -9.9919   17.4189 C   0  0  0  0  0  0  0  0  0  0  0  0
   12.4767   -4.7393   22.1790 C   0  0  0  0  0  0  0  0  0  0  0  0
    7.8593   -5.3772   15.3569 N   0  0  0  0  0  0  0  0  0  0  0  0
    7.4412   -6.9038   16.9283 C   0  0  0  0  0  0  0  0  0  0  0  0
  1 21  4  0
  1 23  4  0
  2  5  1  0
  2 13  4  0
  2 16  4  0
  3  6  4  0
  3  7  4  0
  4 13  4  0
  4 19  4  0
  4 24  4  0
  6 23  4  0
  7 16  1  0
  7 21  4  0
  8 18  1  0
  9 20  4  0
  9 22  4  0
 10 17  1  0
 10 25  1  0
 11 16  4  0
 11 19  4  0
 12 15  4  0
 12 22  4  0
 14 24  4  0
 14 25  4  0
 15 17  4  0
 17 20  4  0
 18 23  1  0
 19 25  4  0
M  END
$$$$

 Created by Python create_sdf_string function

 25 28  0  0  0  0  0  0  0  0999 V2000
   13.1533   -5.2399   21.0682 C   0  0  0  0  0  0  0  0  0  0  0  0
   10.4729   -4.0295   17.6135 C   0  0  0  0  0  0  0  0  0  0  0  0
   10.4789   -4.3641   20.9564 C   0  0  0  0  0  0  0  0  0  0  0  0
    8.7421   -5.1412   16.3650 C   0  0  0  0  0  0  0  0  0  0  0  0
   11.4353   -2.9204   17.8044 C   0  0  0  0  0  0  0  0  0  0  0  0
   11.1529   -4.3028   22.1277 C   0  0  0  0  0  0  0  0  0  0  0  0
   11.1290   -4.8502   19.8052 C   0  0  0  0  0  0  0  0  0  0  0  0
   12.4329   -4.2159   24.4224 C   0  0  0  0  0  0  0  0  0  0  0  0
    3.4740   -9.0387   16.5022 C   0  0  0  0  0  0  0  0  0  0  0  0
    6.8384   -7.9290   17.5282 N   0  0  0  0  0  0  0  0  0  0  0  0
    9.4126   -5.9853   18.4899 C   0  0  0  0  0  0  0  0  0  0  0  0
    4.2064  -10.3242   18.3302 C   0  0  0  0  0  0  0  0  0  0  0  0
    9.6599   -4.1551   16.4796 N   0  0  0  0  0  0  0  0  0  0  0  0
    7.0644   -6.4612   15.7375 N   0  0  0  0  0  0  0  0  0  0  0  0
    5.3549   -9.6322   18.3190 C   0  0  0  0  0  0  0  0  0  0  0  0
   10.3704   -4.9638   18.6510 C   0  0  0  0  0  0  0  0  0  0  0  0
    5.5935   -8.6419   17.4234 C   0  0  0  0  0  0  0  0  0  0  0  0
   13.0726   -4.6648   23.3394 O   0  0  0  0  0  0  0  0  0  0  0  0
    8.5955   -6.0705   17.3996 C   0  0  0  0  0  0  0  0  0  0  0  0
    4.6223   -8.3832   16.5030 C   0  0  0  0  0  0  0  0  0  0  0  0
   12.4690   -5.2624   19.9024 C   0  0  0  0  0  0  0  0  0  0  0  0
    3.2548   -9.9919   17.4189 C   0  0  0  0  0  0  0  0  0  0  0  0
   12.4767   -4.7393   22.1790 C   0  0  0  0  0  0  0  0  0  0  0  0
    7.8593   -5.3772   15.3569 N   0  0  0  0  0  0  0  0  0  0  0  0
    7.4412   -6.9038   16.9283 C   0  0  0  0  0  0  0  0  0  0  0  0
  1 21  4  0
  1 23  4  0
  2  5  1  0
  2 13  4  0
  2 16  4  0
  3  6  4  0
  3  7  4  0
  4 13  4  0
  4 19  4  0
  4 24  4  0
  6 23  4  0
  7 16  1  0
  7 21  4  0
  8 18  1  0
  9 20  4  0
  9 22  4  0
 10 17  1  0
 10 25  1  0
 11 16  4  0
 11 19  4  0
 12 15  4  0
 12 22  4  0
 14 24  4  0
 14 25  4  0
 15 17  4  0
 17 20  4  0
 18 23  1  0
 19 25  4  0
M  END
$$$$

 Created by Python create_sdf_string function

 25 28  0  0  0  0  0  0  0  0999 V2000
   13.1533   -5.2399   21.0682 C   0  0  0  0  0  0  0  0  0  0  0  0
   10.4729   -4.0295   17.6135 C   0  0  0  0  0  0  0  0  0  0  0  0
   10.4789   -4.3641   20.9564 C   0  0  0  0  0  0  0  0  0  0  0  0
    8.7421   -5.1412   16.3650 C   0  0  0  0  0  0  0  0  0  0  0  0
   11.4353   -2.9204   17.8044 C   0  0  0  0  0  0  0  0  0  0  0  0
   11.1529   -4.3028   22.1277 C   0  0  0  0  0  0  0  0  0  0  0  0
   11.1290   -4.8502   19.8052 C   0  0  0  0  0  0  0  0  0  0  0  0
   12.4329   -4.2159   24.4224 C   0  0  0  0  0  0  0  0  0  0  0  0
    3.4740   -9.0387   16.5022 C   0  0  0  0  0  0  0  0  0  0  0  0
    6.8384   -7.9290   17.5282 N   0  0  0  0  0  0  0  0  0  0  0  0
    9.4126   -5.9853   18.4899 C   0  0  0  0  0  0  0  0  0  0  0  0
    4.2064  -10.3242   18.3302 C   0  0  0  0  0  0  0  0  0  0  0  0
    9.6599   -4.1551   16.4796 N   0  0  0  0  0  0  0  0  0  0  0  0
    7.0644   -6.4612   15.7375 N   0  0  0  0  0  0  0  0  0  0  0  0
    5.3549   -9.6322   18.3190 C   0  0  0  0  0  0  0  0  0  0  0  0
   10.3704   -4.9638   18.6510 C   0  0  0  0  0  0  0  0  0  0  0  0
    5.5935   -8.6419   17.4234 C   0  0  0  0  0  0  0  0  0  0  0  0
   13.0726   -4.6648   23.3394 O   0  0  0  0  0  0  0  0  0  0  0  0
    8.5955   -6.0705   17.3996 C   0  0  0  0  0  0  0  0  0  0  0  0
    4.6223   -8.3832   16.5030 C   0  0  0  0  0  0  0  0  0  0  0  0
   12.4690   -5.2624   19.9024 C   0  0  0  0  0  0  0  0  0  0  0  0
    3.2548   -9.9919   17.4189 C   0  0  0  0  0  0  0  0  0  0  0  0
   12.4767   -4.7393   22.1790 C   0  0  0  0  0  0  0  0  0  0  0  0
    7.8593   -5.3772   15.3569 N   0  0  0  0  0  0  0  0  0  0  0  0
    7.4412   -6.9038   16.9283 C   0  0  0  0  0  0  0  0  0  0  0  0
  1 21  4  0
  1 23  4  0
  2  5  1  0
  2 13  4  0
  2 16  4  0
  3  6  4  0
  3  7  4  0
  4 13  4  0
  4 19  4  0
  4 24  4  0
  6 23  4  0
  7 16  1  0
  7 21  4  0
  8 18  1  0
  9 20  4  0
  9 22  4  0
 10 17  1  0
 10 25  1  0
 11 16  4  0
 11 19  4  0
 12 15  4  0
 12 22  4  0
 14 24  4  0
 14 25  4  0
 15 17  4  0
 17 20  4  0
 18 23  1  0
 19 25  4  0
M  END
$$$$

 Created by Python create_sdf_string function

 25 28  0  0  0  0  0  0  0  0999 V2000
   13.1533   -5.2399   21.0682 C   0  0  0  0  0  0  0  0  0  0  0  0
   10.4729   -4.0295   17.6135 C   0  0  0  0  0  0  0  0  0  0  0  0
   10.4789   -4.3641   20.9564 C   0  0  0  0  0  0  0  0  0  0  0  0
    8.7421   -5.1412   16.3650 C   0  0  0  0  0  0  0  0  0  0  0  0
   11.4353   -2.9204   17.8044 C   0  0  0  0  0  0  0  0  0  0  0  0
   11.1529   -4.3028   22.1277 C   0  0  0  0  0  0  0  0  0  0  0  0
   11.1290   -4.8502   19.8052 C   0  0  0  0  0  0  0  0  0  0  0  0
   12.4329   -4.2159   24.4224 C   0  0  0  0  0  0  0  0  0  0  0  0
    3.4740   -9.0387   16.5022 C   0  0  0  0  0  0  0  0  0  0  0  0
    6.8384   -7.9290   17.5282 N   0  0  0  0  0  0  0  0  0  0  0  0
    9.4126   -5.9853   18.4899 C   0  0  0  0  0  0  0  0  0  0  0  0
    4.2064  -10.3242   18.3302 C   0  0  0  0  0  0  0  0  0  0  0  0
    9.6599   -4.1551   16.4796 N   0  0  0  0  0  0  0  0  0  0  0  0
    7.0644   -6.4612   15.7375 N   0  0  0  0  0  0  0  0  0  0  0  0
    5.3549   -9.6322   18.3190 C   0  0  0  0  0  0  0  0  0  0  0  0
   10.3704   -4.9638   18.6510 C   0  0  0  0  0  0  0  0  0  0  0  0
    5.5935   -8.6419   17.4234 C   0  0  0  0  0  0  0  0  0  0  0  0
   13.0726   -4.6648   23.3394 O   0  0  0  0  0  0  0  0  0  0  0  0
    8.5955   -6.0705   17.3996 C   0  0  0  0  0  0  0  0  0  0  0  0
    4.6223   -8.3832   16.5030 C   0  0  0  0  0  0  0  0  0  0  0  0
   12.4690   -5.2624   19.9024 C   0  0  0  0  0  0  0  0  0  0  0  0
    3.2548   -9.9919   17.4189 C   0  0  0  0  0  0  0  0  0  0  0  0
   12.4767   -4.7393   22.1790 C   0  0  0  0  0  0  0  0  0  0  0  0
    7.8593   -5.3772   15.3569 N   0  0  0  0  0  0  0  0  0  0  0  0
    7.4412   -6.9038   16.9283 C   0  0  0  0  0  0  0  0  0  0  0  0
  1 21  4  0
  1 23  4  0
  2  5  1  0
  2 13  4  0
  2 16  4  0
  3  6  4  0
  3  7  4  0
  4 13  4  0
  4 19  4  0
  4 24  4  0
  6 23  4  0
  7 16  1  0
  7 21  4  0
  8 18  1  0
  9 20  4  0
  9 22  4  0
 10 17  1  0
 10 25  1  0
 11 16  4  0
 11 19  4  0
 12 15  4  0
 12 22  4  0
 14 24  4  0
 14 25  4  0
 15 17  4  0
 17 20  4  0
 18 23  1  0
 19 25  4  0
M  END
$$$$

 Created by Python create_sdf_string function

 25 28  0  0  0  0  0  0  0  0999 V2000
   13.1533   -5.2399   21.0682 C   0  0  0  0  0  0  0  0  0  0  0  0
   10.4729   -4.0295   17.6135 C   0  0  0  0  0  0  0  0  0  0  0  0
   10.4789   -4.3641   20.9564 C   0  0  0  0  0  0  0  0  0  0  0  0
    8.7421   -5.1412   16.3650 C   0  0  0  0  0  0  0  0  0  0  0  0
   11.4353   -2.9204   17.8044 C   0  0  0  0  0  0  0  0  0  0  0  0
   11.1529   -4.3028   22.1277 C   0  0  0  0  0  0  0  0  0  0  0  0
   11.1290   -4.8502   19.8052 C   0  0  0  0  0  0  0  0  0  0  0  0
   12.4329   -4.2159   24.4224 C   0  0  0  0  0  0  0  0  0  0  0  0
    3.4740   -9.0387   16.5022 C   0  0  0  0  0  0  0  0  0  0  0  0
    6.8384   -7.9290   17.5282 N   0  0  0  0  0  0  0  0  0  0  0  0
    9.4126   -5.9853   18.4899 C   0  0  0  0  0  0  0  0  0  0  0  0
    4.2064  -10.3242   18.3302 C   0  0  0  0  0  0  0  0  0  0  0  0
    9.6599   -4.1551   16.4796 N   0  0  0  0  0  0  0  0  0  0  0  0
    7.0644   -6.4612   15.7375 N   0  0  0  0  0  0  0  0  0  0  0  0
    5.3549   -9.6322   18.3190 C   0  0  0  0  0  0  0  0  0  0  0  0
   10.3704   -4.9638   18.6510 C   0  0  0  0  0  0  0  0  0  0  0  0
    5.5935   -8.6419   17.4234 C   0  0  0  0  0  0  0  0  0  0  0  0
   13.0726   -4.6648   23.3394 O   0  0  0  0  0  0  0  0  0  0  0  0
    8.5955   -6.0705   17.3996 C   0  0  0  0  0  0  0  0  0  0  0  0
    4.6223   -8.3832   16.5030 C   0  0  0  0  0  0  0  0  0  0  0  0
   12.4690   -5.2624   19.9024 C   0  0  0  0  0  0  0  0  0  0  0  0
    3.2548   -9.9919   17.4189 C   0  0  0  0  0  0  0  0  0  0  0  0
   12.4767   -4.7393   22.1790 C   0  0  0  0  0  0  0  0  0  0  0  0
    7.8593   -5.3772   15.3569 N   0  0  0  0  0  0  0  0  0  0  0  0
    7.4412   -6.9038   16.9283 C   0  0  0  0  0  0  0  0  0  0  0  0
  1 21  4  0
  1 23  4  0
  2  5  1  0
  2 13  4  0
  2 16  4  0
  3  6  4  0
  3  7  4  0
  4 13  4  0
  4 19  4  0
  4 24  4  0
  6 23  4  0
  7 16  1  0
  7 21  4  0
  8 18  1  0
  9 20  4  0
  9 22  4  0
 10 17  1  0
 10 25  1  0
 11 16  4  0
 11 19  4  0
 12 15  4  0
 12 22  4  0
 14 24  4  0
 14 25  4  0
 15 17  4  0
 17 20  4  0
 18 23  1  0
 19 25  4  0
M  END
$$$$

 Created by Python create_sdf_string function

 25 28  0  0  0  0  0  0  0  0999 V2000
   13.1533   -5.2399   21.0682 C   0  0  0  0  0  0  0  0  0  0  0  0
   10.4729   -4.0295   17.6135 C   0  0  0  0  0  0  0  0  0  0  0  0
   10.4789   -4.3641   20.9564 C   0  0  0  0  0  0  0  0  0  0  0  0
    8.7421   -5.1412   16.3650 C   0  0  0  0  0  0  0  0  0  0  0  0
   11.4353   -2.9204   17.8044 C   0  0  0  0  0  0  0  0  0  0  0  0
   11.1529   -4.3028   22.1277 C   0  0  0  0  0  0  0  0  0  0  0  0
   11.1290   -4.8502   19.8052 C   0  0  0  0  0  0  0  0  0  0  0  0
   12.4329   -4.2159   24.4224 C   0  0  0  0  0  0  0  0  0  0  0  0
    3.4740   -9.0387   16.5022 C   0  0  0  0  0  0  0  0  0  0  0  0
    6.8384   -7.9290   17.5282 N   0  0  0  0  0  0  0  0  0  0  0  0
    9.4126   -5.9853   18.4899 C   0  0  0  0  0  0  0  0  0  0  0  0
    4.2064  -10.3242   18.3302 C   0  0  0  0  0  0  0  0  0  0  0  0
    9.6599   -4.1551   16.4796 N   0  0  0  0  0  0  0  0  0  0  0  0
    7.0644   -6.4612   15.7375 N   0  0  0  0  0  0  0  0  0  0  0  0
    5.3549   -9.6322   18.3190 C   0  0  0  0  0  0  0  0  0  0  0  0
   10.3704   -4.9638   18.6510 C   0  0  0  0  0  0  0  0  0  0  0  0
    5.5935   -8.6419   17.4234 C   0  0  0  0  0  0  0  0  0  0  0  0
   13.0726   -4.6648   23.3394 O   0  0  0  0  0  0  0  0  0  0  0  0
    8.5955   -6.0705   17.3996 C   0  0  0  0  0  0  0  0  0  0  0  0
    4.6223   -8.3832   16.5030 C   0  0  0  0  0  0  0  0  0  0  0  0
   12.4690   -5.2624   19.9024 C   0  0  0  0  0  0  0  0  0  0  0  0
    3.2548   -9.9919   17.4189 C   0  0  0  0  0  0  0  0  0  0  0  0
   12.4767   -4.7393   22.1790 C   0  0  0  0  0  0  0  0  0  0  0  0
    7.8593   -5.3772   15.3569 N   0  0  0  0  0  0  0  0  0  0  0  0
    7.4412   -6.9038   16.9283 C   0  0  0  0  0  0  0  0  0  0  0  0
  1 21  4  0
  1 23  4  0
  2  5  1  0
  2 13  4  0
  2 16  4  0
  3  6  4  0
  3  7  4  0
  4 13  4  0
  4 19  4  0
  4 24  4  0
  6 23  4  0
  7 16  1  0
  7 21  4  0
  8 18  1  0
  9 20  4  0
  9 22  4  0
 10 17  1  0
 10 25  1  0
 11 16  4  0
 11 19  4  0
 12 15  4  0
 12 22  4  0
 14 24  4  0
 14 25  4  0
 15 17  4  0
 17 20  4  0
 18 23  1  0
 19 25  4  0
M  END
$$$$

 Created by Python create_sdf_string function

 25 28  0  0  0  0  0  0  0  0999 V2000
   13.1533   -5.2399   21.0682 C   0  0  0  0  0  0  0  0  0  0  0  0
   10.4729   -4.0295   17.6135 C   0  0  0  0  0  0  0  0  0  0  0  0
   10.4789   -4.3641   20.9564 C   0  0  0  0  0  0  0  0  0  0  0  0
    8.7421   -5.1412   16.3650 C   0  0  0  0  0  0  0  0  0  0  0  0
   11.4353   -2.9204   17.8044 C   0  0  0  0  0  0  0  0  0  0  0  0
   11.1529   -4.3028   22.1277 C   0  0  0  0  0  0  0  0  0  0  0  0
   11.1290   -4.8502   19.8052 C   0  0  0  0  0  0  0  0  0  0  0  0
   12.4329   -4.2159   24.4224 C   0  0  0  0  0  0  0  0  0  0  0  0
    3.4740   -9.0387   16.5022 C   0  0  0  0  0  0  0  0  0  0  0  0
    6.8384   -7.9290   17.5282 N   0  0  0  0  0  0  0  0  0  0  0  0
    9.4126   -5.9853   18.4899 C   0  0  0  0  0  0  0  0  0  0  0  0
    4.2064  -10.3242   18.3302 C   0  0  0  0  0  0  0  0  0  0  0  0
    9.6599   -4.1551   16.4796 N   0  0  0  0  0  0  0  0  0  0  0  0
    7.0644   -6.4612   15.7375 N   0  0  0  0  0  0  0  0  0  0  0  0
    5.3549   -9.6322   18.3190 C   0  0  0  0  0  0  0  0  0  0  0  0
   10.3704   -4.9638   18.6510 C   0  0  0  0  0  0  0  0  0  0  0  0
    5.5935   -8.6419   17.4234 C   0  0  0  0  0  0  0  0  0  0  0  0
   13.0726   -4.6648   23.3394 O   0  0  0  0  0  0  0  0  0  0  0  0
    8.5955   -6.0705   17.3996 C   0  0  0  0  0  0  0  0  0  0  0  0
    4.6223   -8.3832   16.5030 C   0  0  0  0  0  0  0  0  0  0  0  0
   12.4690   -5.2624   19.9024 C   0  0  0  0  0  0  0  0  0  0  0  0
    3.2548   -9.9919   17.4189 C   0  0  0  0  0  0  0  0  0  0  0  0
   12.4767   -4.7393   22.1790 C   0  0  0  0  0  0  0  0  0  0  0  0
    7.8593   -5.3772   15.3569 N   0  0  0  0  0  0  0  0  0  0  0  0
    7.4412   -6.9038   16.9283 C   0  0  0  0  0  0  0  0  0  0  0  0
  1 21  4  0
  1 23  4  0
  2  5  1  0
  2 13  4  0
  2 16  4  0
  3  6  4  0
  3  7  4  0
  4 13  4  0
  4 19  4  0
  4 24  4  0
  6 23  4  0
  7 16  1  0
  7 21  4  0
  8 18  1  0
  9 20  4  0
  9 22  4  0
 10 17  1  0
 10 25  1  0
 11 16  4  0
 11 19  4  0
 12 15  4  0
 12 22  4  0
 14 24  4  0
 14 25  4  0
 15 17  4  0
 17 20  4  0
 18 23  1  0
 19 25  4  0
M  END
$$$$

 Created by Python create_sdf_string function

 25 28  0  0  0  0  0  0  0  0999 V2000
   13.1533   -5.2399   21.0682 C   0  0  0  0  0  0  0  0  0  0  0  0
   10.4729   -4.0295   17.6135 C   0  0  0  0  0  0  0  0  0  0  0  0
   10.4789   -4.3641   20.9564 C   0  0  0  0  0  0  0  0  0  0  0  0
    8.7421   -5.1412   16.3650 C   0  0  0  0  0  0  0  0  0  0  0  0
   11.4353   -2.9204   17.8044 C   0  0  0  0  0  0  0  0  0  0  0  0
   11.1529   -4.3028   22.1277 C   0  0  0  0  0  0  0  0  0  0  0  0
   11.1290   -4.8502   19.8052 C   0  0  0  0  0  0  0  0  0  0  0  0
   12.4329   -4.2159   24.4224 C   0  0  0  0  0  0  0  0  0  0  0  0
    3.4740   -9.0387   16.5022 C   0  0  0  0  0  0  0  0  0  0  0  0
    6.8384   -7.9290   17.5282 N   0  0  0  0  0  0  0  0  0  0  0  0
    9.4126   -5.9853   18.4899 C   0  0  0  0  0  0  0  0  0  0  0  0
    4.2064  -10.3242   18.3302 C   0  0  0  0  0  0  0  0  0  0  0  0
    9.6599   -4.1551   16.4796 N   0  0  0  0  0  0  0  0  0  0  0  0
    7.0644   -6.4612   15.7375 N   0  0  0  0  0  0  0  0  0  0  0  0
    5.3549   -9.6322   18.3190 C   0  0  0  0  0  0  0  0  0  0  0  0
   10.3704   -4.9638   18.6510 C   0  0  0  0  0  0  0  0  0  0  0  0
    5.5935   -8.6419   17.4234 C   0  0  0  0  0  0  0  0  0  0  0  0
   13.0726   -4.6648   23.3394 O   0  0  0  0  0  0  0  0  0  0  0  0
    8.5955   -6.0705   17.3996 C   0  0  0  0  0  0  0  0  0  0  0  0
    4.6223   -8.3832   16.5030 C   0  0  0  0  0  0  0  0  0  0  0  0
   12.4690   -5.2624   19.9024 C   0  0  0  0  0  0  0  0  0  0  0  0
    3.2548   -9.9919   17.4189 C   0  0  0  0  0  0  0  0  0  0  0  0
   12.4767   -4.7393   22.1790 C   0  0  0  0  0  0  0  0  0  0  0  0
    7.8593   -5.3772   15.3569 N   0  0  0  0  0  0  0  0  0  0  0  0
    7.4412   -6.9038   16.9283 C   0  0  0  0  0  0  0  0  0  0  0  0
  1 21  4  0
  1 23  4  0
  2  5  1  0
  2 13  4  0
  2 16  4  0
  3  6  4  0
  3  7  4  0
  4 13  4  0
  4 19  4  0
  4 24  4  0
  6 23  4  0
  7 16  1  0
  7 21  4  0
  8 18  1  0
  9 20  4  0
  9 22  4  0
 10 17  1  0
 10 25  1  0
 11 16  4  0
 11 19  4  0
 12 15  4  0
 12 22  4  0
 14 24  4  0
 14 25  4  0
 15 17  4  0
 17 20  4  0
 18 23  1  0
 19 25  4  0
M  END
$$$$

 Created by Python create_sdf_string function

 25 28  0  0  0  0  0  0  0  0999 V2000
   13.1533   -5.2399   21.0682 C   0  0  0  0  0  0  0  0  0  0  0  0
   10.4729   -4.0295   17.6135 C   0  0  0  0  0  0  0  0  0  0  0  0
   10.4789   -4.3641   20.9564 C   0  0  0  0  0  0  0  0  0  0  0  0
    8.7421   -5.1412   16.3650 C   0  0  0  0  0  0  0  0  0  0  0  0
   11.4353   -2.9204   17.8044 C   0  0  0  0  0  0  0  0  0  0  0  0
   11.1529   -4.3028   22.1277 C   0  0  0  0  0  0  0  0  0  0  0  0
   11.1290   -4.8502   19.8052 C   0  0  0  0  0  0  0  0  0  0  0  0
   12.4329   -4.2159   24.4224 C   0  0  0  0  0  0  0  0  0  0  0  0
    3.4740   -9.0387   16.5022 C   0  0  0  0  0  0  0  0  0  0  0  0
    6.8384   -7.9290   17.5282 N   0  0  0  0  0  0  0  0  0  0  0  0
    9.4126   -5.9853   18.4899 C   0  0  0  0  0  0  0  0  0  0  0  0
    4.2064  -10.3242   18.3302 C   0  0  0  0  0  0  0  0  0  0  0  0
    9.6599   -4.1551   16.4796 N   0  0  0  0  0  0  0  0  0  0  0  0
    7.0644   -6.4612   15.7375 N   0  0  0  0  0  0  0  0  0  0  0  0
    5.3549   -9.6322   18.3190 C   0  0  0  0  0  0  0  0  0  0  0  0
   10.3704   -4.9638   18.6510 C   0  0  0  0  0  0  0  0  0  0  0  0
    5.5935   -8.6419   17.4234 C   0  0  0  0  0  0  0  0  0  0  0  0
   13.0726   -4.6648   23.3394 O   0  0  0  0  0  0  0  0  0  0  0  0
    8.5955   -6.0705   17.3996 C   0  0  0  0  0  0  0  0  0  0  0  0
    4.6223   -8.3832   16.5030 C   0  0  0  0  0  0  0  0  0  0  0  0
   12.4690   -5.2624   19.9024 C   0  0  0  0  0  0  0  0  0  0  0  0
    3.2548   -9.9919   17.4189 C   0  0  0  0  0  0  0  0  0  0  0  0
   12.4767   -4.7393   22.1790 C   0  0  0  0  0  0  0  0  0  0  0  0
    7.8593   -5.3772   15.3569 N   0  0  0  0  0  0  0  0  0  0  0  0
    7.4412   -6.9038   16.9283 C   0  0  0  0  0  0  0  0  0  0  0  0
  1 21  4  0
  1 23  4  0
  2  5  1  0
  2 13  4  0
  2 16  4  0
  3  6  4  0
  3  7  4  0
  4 13  4  0
  4 19  4  0
  4 24  4  0
  6 23  4  0
  7 16  1  0
  7 21  4  0
  8 18  1  0
  9 20  4  0
  9 22  4  0
 10 17  1  0
 10 25  1  0
 11 16  4  0
 11 19  4  0
 12 15  4  0
 12 22  4  0
 14 24  4  0
 14 25  4  0
 15 17  4  0
 17 20  4  0
 18 23  1  0
 19 25  4  0
M  END
$$$$

 Created by Python create_sdf_string function

 25 28  0  0  0  0  0  0  0  0999 V2000
   13.1533   -5.2399   21.0682 C   0  0  0  0  0  0  0  0  0  0  0  0
   10.4729   -4.0295   17.6135 C   0  0  0  0  0  0  0  0  0  0  0  0
   10.4789   -4.3641   20.9564 C   0  0  0  0  0  0  0  0  0  0  0  0
    8.7421   -5.1412   16.3650 C   0  0  0  0  0  0  0  0  0  0  0  0
   11.4353   -2.9204   17.8044 C   0  0  0  0  0  0  0  0  0  0  0  0
   11.1529   -4.3028   22.1277 C   0  0  0  0  0  0  0  0  0  0  0  0
   11.1290   -4.8502   19.8052 C   0  0  0  0  0  0  0  0  0  0  0  0
   12.4329   -4.2159   24.4224 C   0  0  0  0  0  0  0  0  0  0  0  0
    3.4740   -9.0387   16.5022 C   0  0  0  0  0  0  0  0  0  0  0  0
    6.8384   -7.9290   17.5282 N   0  0  0  0  0  0  0  0  0  0  0  0
    9.4126   -5.9853   18.4899 C   0  0  0  0  0  0  0  0  0  0  0  0
    4.2064  -10.3242   18.3302 C   0  0  0  0  0  0  0  0  0  0  0  0
    9.6599   -4.1551   16.4796 N   0  0  0  0  0  0  0  0  0  0  0  0
    7.0644   -6.4612   15.7375 N   0  0  0  0  0  0  0  0  0  0  0  0
    5.3549   -9.6322   18.3190 C   0  0  0  0  0  0  0  0  0  0  0  0
   10.3704   -4.9638   18.6510 C   0  0  0  0  0  0  0  0  0  0  0  0
    5.5935   -8.6419   17.4234 C   0  0  0  0  0  0  0  0  0  0  0  0
   13.0726   -4.6648   23.3394 O   0  0  0  0  0  0  0  0  0  0  0  0
    8.5955   -6.0705   17.3996 C   0  0  0  0  0  0  0  0  0  0  0  0
    4.6223   -8.3832   16.5030 C   0  0  0  0  0  0  0  0  0  0  0  0
   12.4690   -5.2624   19.9024 C   0  0  0  0  0  0  0  0  0  0  0  0
    3.2548   -9.9919   17.4189 C   0  0  0  0  0  0  0  0  0  0  0  0
   12.4767   -4.7393   22.1790 C   0  0  0  0  0  0  0  0  0  0  0  0
    7.8593   -5.3772   15.3569 N   0  0  0  0  0  0  0  0  0  0  0  0
    7.4412   -6.9038   16.9283 C   0  0  0  0  0  0  0  0  0  0  0  0
  1 21  4  0
  1 23  4  0
  2  5  1  0
  2 13  4  0
  2 16  4  0
  3  6  4  0
  3  7  4  0
  4 13  4  0
  4 19  4  0
  4 24  4  0
  6 23  4  0
  7 16  1  0
  7 21  4  0
  8 18  1  0
  9 20  4  0
  9 22  4  0
 10 17  1  0
 10 25  1  0
 11 16  4  0
 11 19  4  0
 12 15  4  0
 12 22  4  0
 14 24  4  0
 14 25  4  0
 15 17  4  0
 17 20  4  0
 18 23  1  0
 19 25  4  0
M  END
$$$$

 Created by Python create_sdf_string function

 25 28  0  0  0  0  0  0  0  0999 V2000
   13.1533   -5.2399   21.0682 C   0  0  0  0  0  0  0  0  0  0  0  0
   10.4729   -4.0295   17.6135 C   0  0  0  0  0  0  0  0  0  0  0  0
   10.4789   -4.3641   20.9564 C   0  0  0  0  0  0  0  0  0  0  0  0
    8.7421   -5.1412   16.3650 C   0  0  0  0  0  0  0  0  0  0  0  0
   11.4353   -2.9204   17.8044 C   0  0  0  0  0  0  0  0  0  0  0  0
   11.1529   -4.3028   22.1277 C   0  0  0  0  0  0  0  0  0  0  0  0
   11.1290   -4.8502   19.8052 C   0  0  0  0  0  0  0  0  0  0  0  0
   12.4329   -4.2159   24.4224 C   0  0  0  0  0  0  0  0  0  0  0  0
    3.4740   -9.0387   16.5022 C   0  0  0  0  0  0  0  0  0  0  0  0
    6.8384   -7.9290   17.5282 N   0  0  0  0  0  0  0  0  0  0  0  0
    9.4126   -5.9853   18.4899 C   0  0  0  0  0  0  0  0  0  0  0  0
    4.2064  -10.3242   18.3302 C   0  0  0  0  0  0  0  0  0  0  0  0
    9.6599   -4.1551   16.4796 N   0  0  0  0  0  0  0  0  0  0  0  0
    7.0644   -6.4612   15.7375 N   0  0  0  0  0  0  0  0  0  0  0  0
    5.3549   -9.6322   18.3190 C   0  0  0  0  0  0  0  0  0  0  0  0
   10.3704   -4.9638   18.6510 C   0  0  0  0  0  0  0  0  0  0  0  0
    5.5935   -8.6419   17.4234 C   0  0  0  0  0  0  0  0  0  0  0  0
   13.0726   -4.6648   23.3394 O   0  0  0  0  0  0  0  0  0  0  0  0
    8.5955   -6.0705   17.3996 C   0  0  0  0  0  0  0  0  0  0  0  0
    4.6223   -8.3832   16.5030 C   0  0  0  0  0  0  0  0  0  0  0  0
   12.4690   -5.2624   19.9024 C   0  0  0  0  0  0  0  0  0  0  0  0
    3.2548   -9.9919   17.4189 C   0  0  0  0  0  0  0  0  0  0  0  0
   12.4767   -4.7393   22.1790 C   0  0  0  0  0  0  0  0  0  0  0  0
    7.8593   -5.3772   15.3569 N   0  0  0  0  0  0  0  0  0  0  0  0
    7.4412   -6.9038   16.9283 C   0  0  0  0  0  0  0  0  0  0  0  0
  1 21  4  0
  1 23  4  0
  2  5  1  0
  2 13  4  0
  2 16  4  0
  3  6  4  0
  3  7  4  0
  4 13  4  0
  4 19  4  0
  4 24  4  0
  6 23  4  0
  7 16  1  0
  7 21  4  0
  8 18  1  0
  9 20  4  0
  9 22  4  0
 10 17  1  0
 10 25  1  0
 11 16  4  0
 11 19  4  0
 12 15  4  0
 12 22  4  0
 14 24  4  0
 14 25  4  0
 15 17  4  0
 17 20  4  0
 18 23  1  0
 19 25  4  0
M  END
$$$$

 Created by Python create_sdf_string function

 25 28  0  0  0  0  0  0  0  0999 V2000
   13.1533   -5.2399   21.0682 C   0  0  0  0  0  0  0  0  0  0  0  0
   10.4729   -4.0295   17.6135 C   0  0  0  0  0  0  0  0  0  0  0  0
   10.4789   -4.3641   20.9564 C   0  0  0  0  0  0  0  0  0  0  0  0
    8.7421   -5.1412   16.3650 C   0  0  0  0  0  0  0  0  0  0  0  0
   11.4353   -2.9204   17.8044 C   0  0  0  0  0  0  0  0  0  0  0  0
   11.1529   -4.3028   22.1277 C   0  0  0  0  0  0  0  0  0  0  0  0
   11.1290   -4.8502   19.8052 C   0  0  0  0  0  0  0  0  0  0  0  0
   12.4329   -4.2159   24.4224 C   0  0  0  0  0  0  0  0  0  0  0  0
    3.4740   -9.0387   16.5022 C   0  0  0  0  0  0  0  0  0  0  0  0
    6.8384   -7.9290   17.5282 N   0  0  0  0  0  0  0  0  0  0  0  0
    9.4126   -5.9853   18.4899 C   0  0  0  0  0  0  0  0  0  0  0  0
    4.2064  -10.3242   18.3302 C   0  0  0  0  0  0  0  0  0  0  0  0
    9.6599   -4.1551   16.4796 N   0  0  0  0  0  0  0  0  0  0  0  0
    7.0644   -6.4612   15.7375 N   0  0  0  0  0  0  0  0  0  0  0  0
    5.3549   -9.6322   18.3190 C   0  0  0  0  0  0  0  0  0  0  0  0
   10.3704   -4.9638   18.6510 C   0  0  0  0  0  0  0  0  0  0  0  0
    5.5935   -8.6419   17.4234 C   0  0  0  0  0  0  0  0  0  0  0  0
   13.0726   -4.6648   23.3394 O   0  0  0  0  0  0  0  0  0  0  0  0
    8.5955   -6.0705   17.3996 C   0  0  0  0  0  0  0  0  0  0  0  0
    4.6223   -8.3832   16.5030 C   0  0  0  0  0  0  0  0  0  0  0  0
   12.4690   -5.2624   19.9024 C   0  0  0  0  0  0  0  0  0  0  0  0
    3.2548   -9.9919   17.4189 C   0  0  0  0  0  0  0  0  0  0  0  0
   12.4767   -4.7393   22.1790 C   0  0  0  0  0  0  0  0  0  0  0  0
    7.8593   -5.3772   15.3569 N   0  0  0  0  0  0  0  0  0  0  0  0
    7.4412   -6.9038   16.9283 C   0  0  0  0  0  0  0  0  0  0  0  0
  1 21  4  0
  1 23  4  0
  2  5  1  0
  2 13  4  0
  2 16  4  0
  3  6  4  0
  3  7  4  0
  4 13  4  0
  4 19  4  0
  4 24  4  0
  6 23  4  0
  7 16  1  0
  7 21  4  0
  8 18  1  0
  9 20  4  0
  9 22  4  0
 10 17  1  0
 10 25  1  0
 11 16  4  0
 11 19  4  0
 12 15  4  0
 12 22  4  0
 14 24  4  0
 14 25  4  0
 15 17  4  0
 17 20  4  0
 18 23  1  0
 19 25  4  0
M  END
$$$$

 Created by Python create_sdf_string function

 25 28  0  0  0  0  0  0  0  0999 V2000
   13.1533   -5.2399   21.0682 C   0  0  0  0  0  0  0  0  0  0  0  0
   10.4729   -4.0295   17.6135 C   0  0  0  0  0  0  0  0  0  0  0  0
   10.4789   -4.3641   20.9564 C   0  0  0  0  0  0  0  0  0  0  0  0
    8.7421   -5.1412   16.3650 C   0  0  0  0  0  0  0  0  0  0  0  0
   11.4353   -2.9204   17.8044 C   0  0  0  0  0  0  0  0  0  0  0  0
   11.1529   -4.3028   22.1277 C   0  0  0  0  0  0  0  0  0  0  0  0
   11.1290   -4.8502   19.8052 C   0  0  0  0  0  0  0  0  0  0  0  0
   12.4329   -4.2159   24.4224 C   0  0  0  0  0  0  0  0  0  0  0  0
    3.4740   -9.0387   16.5022 C   0  0  0  0  0  0  0  0  0  0  0  0
    6.8384   -7.9290   17.5282 N   0  0  0  0  0  0  0  0  0  0  0  0
    9.4126   -5.9853   18.4899 C   0  0  0  0  0  0  0  0  0  0  0  0
    4.2064  -10.3242   18.3302 C   0  0  0  0  0  0  0  0  0  0  0  0
    9.6599   -4.1551   16.4796 N   0  0  0  0  0  0  0  0  0  0  0  0
    7.0644   -6.4612   15.7375 N   0  0  0  0  0  0  0  0  0  0  0  0
    5.3549   -9.6322   18.3190 C   0  0  0  0  0  0  0  0  0  0  0  0
   10.3704   -4.9638   18.6510 C   0  0  0  0  0  0  0  0  0  0  0  0
    5.5935   -8.6419   17.4234 C   0  0  0  0  0  0  0  0  0  0  0  0
   13.0726   -4.6648   23.3394 O   0  0  0  0  0  0  0  0  0  0  0  0
    8.5955   -6.0705   17.3996 C   0  0  0  0  0  0  0  0  0  0  0  0
    4.6223   -8.3832   16.5030 C   0  0  0  0  0  0  0  0  0  0  0  0
   12.4690   -5.2624   19.9024 C   0  0  0  0  0  0  0  0  0  0  0  0
    3.2548   -9.9919   17.4189 C   0  0  0  0  0  0  0  0  0  0  0  0
   12.4767   -4.7393   22.1790 C   0  0  0  0  0  0  0  0  0  0  0  0
    7.8593   -5.3772   15.3569 N   0  0  0  0  0  0  0  0  0  0  0  0
    7.4412   -6.9038   16.9283 C   0  0  0  0  0  0  0  0  0  0  0  0
  1 21  4  0
  1 23  4  0
  2  5  1  0
  2 13  4  0
  2 16  4  0
  3  6  4  0
  3  7  4  0
  4 13  4  0
  4 19  4  0
  4 24  4  0
  6 23  4  0
  7 16  1  0
  7 21  4  0
  8 18  1  0
  9 20  4  0
  9 22  4  0
 10 17  1  0
 10 25  1  0
 11 16  4  0
 11 19  4  0
 12 15  4  0
 12 22  4  0
 14 24  4  0
 14 25  4  0
 15 17  4  0
 17 20  4  0
 18 23  1  0
 19 25  4  0
M  END
$$$$

 Created by Python create_sdf_string function

 25 28  0  0  0  0  0  0  0  0999 V2000
   13.1533   -5.2399   21.0682 C   0  0  0  0  0  0  0  0  0  0  0  0
   10.4729   -4.0295   17.6135 C   0  0  0  0  0  0  0  0  0  0  0  0
   10.4789   -4.3641   20.9564 C   0  0  0  0  0  0  0  0  0  0  0  0
    8.7421   -5.1412   16.3650 C   0  0  0  0  0  0  0  0  0  0  0  0
   11.4353   -2.9204   17.8044 C   0  0  0  0  0  0  0  0  0  0  0  0
   11.1529   -4.3028   22.1277 C   0  0  0  0  0  0  0  0  0  0  0  0
   11.1290   -4.8502   19.8052 C   0  0  0  0  0  0  0  0  0  0  0  0
   12.4329   -4.2159   24.4224 C   0  0  0  0  0  0  0  0  0  0  0  0
    3.4740   -9.0387   16.5022 C   0  0  0  0  0  0  0  0  0  0  0  0
    6.8384   -7.9290   17.5282 N   0  0  0  0  0  0  0  0  0  0  0  0
    9.4126   -5.9853   18.4899 C   0  0  0  0  0  0  0  0  0  0  0  0
    4.2064  -10.3242   18.3302 C   0  0  0  0  0  0  0  0  0  0  0  0
    9.6599   -4.1551   16.4796 N   0  0  0  0  0  0  0  0  0  0  0  0
    7.0644   -6.4612   15.7375 N   0  0  0  0  0  0  0  0  0  0  0  0
    5.3549   -9.6322   18.3190 C   0  0  0  0  0  0  0  0  0  0  0  0
   10.3704   -4.9638   18.6510 C   0  0  0  0  0  0  0  0  0  0  0  0
    5.5935   -8.6419   17.4234 C   0  0  0  0  0  0  0  0  0  0  0  0
   13.0726   -4.6648   23.3394 O   0  0  0  0  0  0  0  0  0  0  0  0
    8.5955   -6.0705   17.3996 C   0  0  0  0  0  0  0  0  0  0  0  0
    4.6223   -8.3832   16.5030 C   0  0  0  0  0  0  0  0  0  0  0  0
   12.4690   -5.2624   19.9024 C   0  0  0  0  0  0  0  0  0  0  0  0
    3.2548   -9.9919   17.4189 C   0  0  0  0  0  0  0  0  0  0  0  0
   12.4767   -4.7393   22.1790 C   0  0  0  0  0  0  0  0  0  0  0  0
    7.8593   -5.3772   15.3569 N   0  0  0  0  0  0  0  0  0  0  0  0
    7.4412   -6.9038   16.9283 C   0  0  0  0  0  0  0  0  0  0  0  0
  1 21  4  0
  1 23  4  0
  2  5  1  0
  2 13  4  0
  2 16  4  0
  3  6  4  0
  3  7  4  0
  4 13  4  0
  4 19  4  0
  4 24  4  0
  6 23  4  0
  7 16  1  0
  7 21  4  0
  8 18  1  0
  9 20  4  0
  9 22  4  0
 10 17  1  0
 10 25  1  0
 11 16  4  0
 11 19  4  0
 12 15  4  0
 12 22  4  0
 14 24  4  0
 14 25  4  0
 15 17  4  0
 17 20  4  0
 18 23  1  0
 19 25  4  0
M  END
$$$$

 Created by Python create_sdf_string function

 25 28  0  0  0  0  0  0  0  0999 V2000
   13.1533   -5.2399   21.0682 C   0  0  0  0  0  0  0  0  0  0  0  0
   10.4729   -4.0295   17.6135 C   0  0  0  0  0  0  0  0  0  0  0  0
   10.4789   -4.3641   20.9564 C   0  0  0  0  0  0  0  0  0  0  0  0
    8.7421   -5.1412   16.3650 C   0  0  0  0  0  0  0  0  0  0  0  0
   11.4353   -2.9204   17.8044 C   0  0  0  0  0  0  0  0  0  0  0  0
   11.1529   -4.3028   22.1277 C   0  0  0  0  0  0  0  0  0  0  0  0
   11.1290   -4.8502   19.8052 C   0  0  0  0  0  0  0  0  0  0  0  0
   12.4329   -4.2159   24.4224 C   0  0  0  0  0  0  0  0  0  0  0  0
    3.4740   -9.0387   16.5022 C   0  0  0  0  0  0  0  0  0  0  0  0
    6.8384   -7.9290   17.5282 N   0  0  0  0  0  0  0  0  0  0  0  0
    9.4126   -5.9853   18.4899 C   0  0  0  0  0  0  0  0  0  0  0  0
    4.2064  -10.3242   18.3302 C   0  0  0  0  0  0  0  0  0  0  0  0
    9.6599   -4.1551   16.4796 N   0  0  0  0  0  0  0  0  0  0  0  0
    7.0644   -6.4612   15.7375 N   0  0  0  0  0  0  0  0  0  0  0  0
    5.3549   -9.6322   18.3190 C   0  0  0  0  0  0  0  0  0  0  0  0
   10.3704   -4.9638   18.6510 C   0  0  0  0  0  0  0  0  0  0  0  0
    5.5935   -8.6419   17.4234 C   0  0  0  0  0  0  0  0  0  0  0  0
   13.0726   -4.6648   23.3394 O   0  0  0  0  0  0  0  0  0  0  0  0
    8.5955   -6.0705   17.3996 C   0  0  0  0  0  0  0  0  0  0  0  0
    4.6223   -8.3832   16.5030 C   0  0  0  0  0  0  0  0  0  0  0  0
   12.4690   -5.2624   19.9024 C   0  0  0  0  0  0  0  0  0  0  0  0
    3.2548   -9.9919   17.4189 C   0  0  0  0  0  0  0  0  0  0  0  0
   12.4767   -4.7393   22.1790 C   0  0  0  0  0  0  0  0  0  0  0  0
    7.8593   -5.3772   15.3569 N   0  0  0  0  0  0  0  0  0  0  0  0
    7.4412   -6.9038   16.9283 C   0  0  0  0  0  0  0  0  0  0  0  0
  1 21  4  0
  1 23  4  0
  2  5  1  0
  2 13  4  0
  2 16  4  0
  3  6  4  0
  3  7  4  0
  4 13  4  0
  4 19  4  0
  4 24  4  0
  6 23  4  0
  7 16  1  0
  7 21  4  0
  8 18  1  0
  9 20  4  0
  9 22  4  0
 10 17  1  0
 10 25  1  0
 11 16  4  0
 11 19  4  0
 12 15  4  0
 12 22  4  0
 14 24  4  0
 14 25  4  0
 15 17  4  0
 17 20  4  0
 18 23  1  0
 19 25  4  0
M  END
$$$$

 Created by Python create_sdf_string function

 25 28  0  0  0  0  0  0  0  0999 V2000
   13.1533   -5.2399   21.0682 C   0  0  0  0  0  0  0  0  0  0  0  0
   10.4729   -4.0295   17.6135 C   0  0  0  0  0  0  0  0  0  0  0  0
   10.4789   -4.3641   20.9564 C   0  0  0  0  0  0  0  0  0  0  0  0
    8.7421   -5.1412   16.3650 C   0  0  0  0  0  0  0  0  0  0  0  0
   11.4353   -2.9204   17.8044 C   0  0  0  0  0  0  0  0  0  0  0  0
   11.1529   -4.3028   22.1277 C   0  0  0  0  0  0  0  0  0  0  0  0
   11.1290   -4.8502   19.8052 C   0  0  0  0  0  0  0  0  0  0  0  0
   12.4329   -4.2159   24.4224 C   0  0  0  0  0  0  0  0  0  0  0  0
    3.4740   -9.0387   16.5022 C   0  0  0  0  0  0  0  0  0  0  0  0
    6.8384   -7.9290   17.5282 N   0  0  0  0  0  0  0  0  0  0  0  0
    9.4126   -5.9853   18.4899 C   0  0  0  0  0  0  0  0  0  0  0  0
    4.2064  -10.3242   18.3302 C   0  0  0  0  0  0  0  0  0  0  0  0
    9.6599   -4.1551   16.4796 N   0  0  0  0  0  0  0  0  0  0  0  0
    7.0644   -6.4612   15.7375 N   0  0  0  0  0  0  0  0  0  0  0  0
    5.3549   -9.6322   18.3190 C   0  0  0  0  0  0  0  0  0  0  0  0
   10.3704   -4.9638   18.6510 C   0  0  0  0  0  0  0  0  0  0  0  0
    5.5935   -8.6419   17.4234 C   0  0  0  0  0  0  0  0  0  0  0  0
   13.0726   -4.6648   23.3394 O   0  0  0  0  0  0  0  0  0  0  0  0
    8.5955   -6.0705   17.3996 C   0  0  0  0  0  0  0  0  0  0  0  0
    4.6223   -8.3832   16.5030 C   0  0  0  0  0  0  0  0  0  0  0  0
   12.4690   -5.2624   19.9024 C   0  0  0  0  0  0  0  0  0  0  0  0
    3.2548   -9.9919   17.4189 C   0  0  0  0  0  0  0  0  0  0  0  0
   12.4767   -4.7393   22.1790 C   0  0  0  0  0  0  0  0  0  0  0  0
    7.8593   -5.3772   15.3569 N   0  0  0  0  0  0  0  0  0  0  0  0
    7.4412   -6.9038   16.9283 C   0  0  0  0  0  0  0  0  0  0  0  0
  1 21  4  0
  1 23  4  0
  2  5  1  0
  2 13  4  0
  2 16  4  0
  3  6  4  0
  3  7  4  0
  4 13  4  0
  4 19  4  0
  4 24  4  0
  6 23  4  0
  7 16  1  0
  7 21  4  0
  8 18  1  0
  9 20  4  0
  9 22  4  0
 10 17  1  0
 10 25  1  0
 11 16  4  0
 11 19  4  0
 12 15  4  0
 12 22  4  0
 14 24  4  0
 14 25  4  0
 15 17  4  0
 17 20  4  0
 18 23  1  0
 19 25  4  0
M  END
$$$$

 Created by Python create_sdf_string function

 25 28  0  0  0  0  0  0  0  0999 V2000
   13.1533   -5.2399   21.0682 C   0  0  0  0  0  0  0  0  0  0  0  0
   10.4729   -4.0295   17.6135 C   0  0  0  0  0  0  0  0  0  0  0  0
   10.4789   -4.3641   20.9564 C   0  0  0  0  0  0  0  0  0  0  0  0
    8.7421   -5.1412   16.3650 C   0  0  0  0  0  0  0  0  0  0  0  0
   11.4353   -2.9204   17.8044 C   0  0  0  0  0  0  0  0  0  0  0  0
   11.1529   -4.3028   22.1277 C   0  0  0  0  0  0  0  0  0  0  0  0
   11.1290   -4.8502   19.8052 C   0  0  0  0  0  0  0  0  0  0  0  0
   12.4329   -4.2159   24.4224 C   0  0  0  0  0  0  0  0  0  0  0  0
    3.4740   -9.0387   16.5022 C   0  0  0  0  0  0  0  0  0  0  0  0
    6.8384   -7.9290   17.5282 N   0  0  0  0  0  0  0  0  0  0  0  0
    9.4126   -5.9853   18.4899 C   0  0  0  0  0  0  0  0  0  0  0  0
    4.2064  -10.3242   18.3302 C   0  0  0  0  0  0  0  0  0  0  0  0
    9.6599   -4.1551   16.4796 N   0  0  0  0  0  0  0  0  0  0  0  0
    7.0644   -6.4612   15.7375 N   0  0  0  0  0  0  0  0  0  0  0  0
    5.3549   -9.6322   18.3190 C   0  0  0  0  0  0  0  0  0  0  0  0
   10.3704   -4.9638   18.6510 C   0  0  0  0  0  0  0  0  0  0  0  0
    5.5935   -8.6419   17.4234 C   0  0  0  0  0  0  0  0  0  0  0  0
   13.0726   -4.6648   23.3394 O   0  0  0  0  0  0  0  0  0  0  0  0
    8.5955   -6.0705   17.3996 C   0  0  0  0  0  0  0  0  0  0  0  0
    4.6223   -8.3832   16.5030 C   0  0  0  0  0  0  0  0  0  0  0  0
   12.4690   -5.2624   19.9024 C   0  0  0  0  0  0  0  0  0  0  0  0
    3.2548   -9.9919   17.4189 C   0  0  0  0  0  0  0  0  0  0  0  0
   12.4767   -4.7393   22.1790 C   0  0  0  0  0  0  0  0  0  0  0  0
    7.8593   -5.3772   15.3569 N   0  0  0  0  0  0  0  0  0  0  0  0
    7.4412   -6.9038   16.9283 C   0  0  0  0  0  0  0  0  0  0  0  0
  1 21  4  0
  1 23  4  0
  2  5  1  0
  2 13  4  0
  2 16  4  0
  3  6  4  0
  3  7  4  0
  4 13  4  0
  4 19  4  0
  4 24  4  0
  6 23  4  0
  7 16  1  0
  7 21  4  0
  8 18  1  0
  9 20  4  0
  9 22  4  0
 10 17  1  0
 10 25  1  0
 11 16  4  0
 11 19  4  0
 12 15  4  0
 12 22  4  0
 14 24  4  0
 14 25  4  0
 15 17  4  0
 17 20  4  0
 18 23  1  0
 19 25  4  0
M  END
$$$$

 Created by Python create_sdf_string function

 25 28  0  0  0  0  0  0  0  0999 V2000
   13.1533   -5.2399   21.0682 C   0  0  0  0  0  0  0  0  0  0  0  0
   10.4729   -4.0295   17.6135 C   0  0  0  0  0  0  0  0  0  0  0  0
   10.4789   -4.3641   20.9564 C   0  0  0  0  0  0  0  0  0  0  0  0
    8.7421   -5.1412   16.3650 C   0  0  0  0  0  0  0  0  0  0  0  0
   11.4353   -2.9204   17.8044 C   0  0  0  0  0  0  0  0  0  0  0  0
   11.1529   -4.3028   22.1277 C   0  0  0  0  0  0  0  0  0  0  0  0
   11.1290   -4.8502   19.8052 C   0  0  0  0  0  0  0  0  0  0  0  0
   12.4329   -4.2159   24.4224 C   0  0  0  0  0  0  0  0  0  0  0  0
    3.4740   -9.0387   16.5022 C   0  0  0  0  0  0  0  0  0  0  0  0
    6.8384   -7.9290   17.5282 N   0  0  0  0  0  0  0  0  0  0  0  0
    9.4126   -5.9853   18.4899 C   0  0  0  0  0  0  0  0  0  0  0  0
    4.2064  -10.3242   18.3302 C   0  0  0  0  0  0  0  0  0  0  0  0
    9.6599   -4.1551   16.4796 N   0  0  0  0  0  0  0  0  0  0  0  0
    7.0644   -6.4612   15.7375 N   0  0  0  0  0  0  0  0  0  0  0  0
    5.3549   -9.6322   18.3190 C   0  0  0  0  0  0  0  0  0  0  0  0
   10.3704   -4.9638   18.6510 C   0  0  0  0  0  0  0  0  0  0  0  0
    5.5935   -8.6419   17.4234 C   0  0  0  0  0  0  0  0  0  0  0  0
   13.0726   -4.6648   23.3394 O   0  0  0  0  0  0  0  0  0  0  0  0
    8.5955   -6.0705   17.3996 C   0  0  0  0  0  0  0  0  0  0  0  0
    4.6223   -8.3832   16.5030 C   0  0  0  0  0  0  0  0  0  0  0  0
   12.4690   -5.2624   19.9024 C   0  0  0  0  0  0  0  0  0  0  0  0
    3.2548   -9.9919   17.4189 C   0  0  0  0  0  0  0  0  0  0  0  0
   12.4767   -4.7393   22.1790 C   0  0  0  0  0  0  0  0  0  0  0  0
    7.8593   -5.3772   15.3569 N   0  0  0  0  0  0  0  0  0  0  0  0
    7.4412   -6.9038   16.9283 C   0  0  0  0  0  0  0  0  0  0  0  0
  1 21  4  0
  1 23  4  0
  2  5  1  0
  2 13  4  0
  2 16  4  0
  3  6  4  0
  3  7  4  0
  4 13  4  0
  4 19  4  0
  4 24  4  0
  6 23  4  0
  7 16  1  0
  7 21  4  0
  8 18  1  0
  9 20  4  0
  9 22  4  0
 10 17  1  0
 10 25  1  0
 11 16  4  0
 11 19  4  0
 12 15  4  0
 12 22  4  0
 14 24  4  0
 14 25  4  0
 15 17  4  0
 17 20  4  0
 18 23  1  0
 19 25  4  0
M  END
$$$$

 Created by Python create_sdf_string function

 25 28  0  0  0  0  0  0  0  0999 V2000
   13.1533   -5.2399   21.0682 C   0  0  0  0  0  0  0  0  0  0  0  0
   10.4729   -4.0295   17.6135 C   0  0  0  0  0  0  0  0  0  0  0  0
   10.4789   -4.3641   20.9564 C   0  0  0  0  0  0  0  0  0  0  0  0
    8.7421   -5.1412   16.3650 C   0  0  0  0  0  0  0  0  0  0  0  0
   11.4353   -2.9204   17.8044 C   0  0  0  0  0  0  0  0  0  0  0  0
   11.1529   -4.3028   22.1277 C   0  0  0  0  0  0  0  0  0  0  0  0
   11.1290   -4.8502   19.8052 C   0  0  0  0  0  0  0  0  0  0  0  0
   12.4329   -4.2159   24.4224 C   0  0  0  0  0  0  0  0  0  0  0  0
    3.4740   -9.0387   16.5022 C   0  0  0  0  0  0  0  0  0  0  0  0
    6.8384   -7.9290   17.5282 N   0  0  0  0  0  0  0  0  0  0  0  0
    9.4126   -5.9853   18.4899 C   0  0  0  0  0  0  0  0  0  0  0  0
    4.2064  -10.3242   18.3302 C   0  0  0  0  0  0  0  0  0  0  0  0
    9.6599   -4.1551   16.4796 N   0  0  0  0  0  0  0  0  0  0  0  0
    7.0644   -6.4612   15.7375 N   0  0  0  0  0  0  0  0  0  0  0  0
    5.3549   -9.6322   18.3190 C   0  0  0  0  0  0  0  0  0  0  0  0
   10.3704   -4.9638   18.6510 C   0  0  0  0  0  0  0  0  0  0  0  0
    5.5935   -8.6419   17.4234 C   0  0  0  0  0  0  0  0  0  0  0  0
   13.0726   -4.6648   23.3394 O   0  0  0  0  0  0  0  0  0  0  0  0
    8.5955   -6.0705   17.3996 C   0  0  0  0  0  0  0  0  0  0  0  0
    4.6223   -8.3832   16.5030 C   0  0  0  0  0  0  0  0  0  0  0  0
   12.4690   -5.2624   19.9024 C   0  0  0  0  0  0  0  0  0  0  0  0
    3.2548   -9.9919   17.4189 C   0  0  0  0  0  0  0  0  0  0  0  0
   12.4767   -4.7393   22.1790 C   0  0  0  0  0  0  0  0  0  0  0  0
    7.8593   -5.3772   15.3569 N   0  0  0  0  0  0  0  0  0  0  0  0
    7.4412   -6.9038   16.9283 C   0  0  0  0  0  0  0  0  0  0  0  0
  1 21  4  0
  1 23  4  0
  2  5  1  0
  2 13  4  0
  2 16  4  0
  3  6  4  0
  3  7  4  0
  4 13  4  0
  4 19  4  0
  4 24  4  0
  6 23  4  0
  7 16  1  0
  7 21  4  0
  8 18  1  0
  9 20  4  0
  9 22  4  0
 10 17  1  0
 10 25  1  0
 11 16  4  0
 11 19  4  0
 12 15  4  0
 12 22  4  0
 14 24  4  0
 14 25  4  0
 15 17  4  0
 17 20  4  0
 18 23  1  0
 19 25  4  0
M  END
$$$$

 Created by Python create_sdf_string function

 25 28  0  0  0  0  0  0  0  0999 V2000
   13.1533   -5.2399   21.0682 C   0  0  0  0  0  0  0  0  0  0  0  0
   10.4729   -4.0295   17.6135 C   0  0  0  0  0  0  0  0  0  0  0  0
   10.4789   -4.3641   20.9564 C   0  0  0  0  0  0  0  0  0  0  0  0
    8.7421   -5.1412   16.3650 C   0  0  0  0  0  0  0  0  0  0  0  0
   11.4353   -2.9204   17.8044 C   0  0  0  0  0  0  0  0  0  0  0  0
   11.1529   -4.3028   22.1277 C   0  0  0  0  0  0  0  0  0  0  0  0
   11.1290   -4.8502   19.8052 C   0  0  0  0  0  0  0  0  0  0  0  0
   12.4329   -4.2159   24.4224 C   0  0  0  0  0  0  0  0  0  0  0  0
    3.4740   -9.0387   16.5022 C   0  0  0  0  0  0  0  0  0  0  0  0
    6.8384   -7.9290   17.5282 N   0  0  0  0  0  0  0  0  0  0  0  0
    9.4126   -5.9853   18.4899 C   0  0  0  0  0  0  0  0  0  0  0  0
    4.2064  -10.3242   18.3302 C   0  0  0  0  0  0  0  0  0  0  0  0
    9.6599   -4.1551   16.4796 N   0  0  0  0  0  0  0  0  0  0  0  0
    7.0644   -6.4612   15.7375 N   0  0  0  0  0  0  0  0  0  0  0  0
    5.3549   -9.6322   18.3190 C   0  0  0  0  0  0  0  0  0  0  0  0
   10.3704   -4.9638   18.6510 C   0  0  0  0  0  0  0  0  0  0  0  0
    5.5935   -8.6419   17.4234 C   0  0  0  0  0  0  0  0  0  0  0  0
   13.0726   -4.6648   23.3394 O   0  0  0  0  0  0  0  0  0  0  0  0
    8.5955   -6.0705   17.3996 C   0  0  0  0  0  0  0  0  0  0  0  0
    4.6223   -8.3832   16.5030 C   0  0  0  0  0  0  0  0  0  0  0  0
   12.4690   -5.2624   19.9024 C   0  0  0  0  0  0  0  0  0  0  0  0
    3.2548   -9.9919   17.4189 C   0  0  0  0  0  0  0  0  0  0  0  0
   12.4767   -4.7393   22.1790 C   0  0  0  0  0  0  0  0  0  0  0  0
    7.8593   -5.3772   15.3569 N   0  0  0  0  0  0  0  0  0  0  0  0
    7.4412   -6.9038   16.9283 C   0  0  0  0  0  0  0  0  0  0  0  0
  1 21  4  0
  1 23  4  0
  2  5  1  0
  2 13  4  0
  2 16  4  0
  3  6  4  0
  3  7  4  0
  4 13  4  0
  4 19  4  0
  4 24  4  0
  6 23  4  0
  7 16  1  0
  7 21  4  0
  8 18  1  0
  9 20  4  0
  9 22  4  0
 10 17  1  0
 10 25  1  0
 11 16  4  0
 11 19  4  0
 12 15  4  0
 12 22  4  0
 14 24  4  0
 14 25  4  0
 15 17  4  0
 17 20  4  0
 18 23  1  0
 19 25  4  0
M  END
$$$$

 Created by Python create_sdf_string function

 25 28  0  0  0  0  0  0  0  0999 V2000
   13.1533   -5.2399   21.0682 C   0  0  0  0  0  0  0  0  0  0  0  0
   10.4729   -4.0295   17.6135 C   0  0  0  0  0  0  0  0  0  0  0  0
   10.4789   -4.3641   20.9564 C   0  0  0  0  0  0  0  0  0  0  0  0
    8.7421   -5.1412   16.3650 C   0  0  0  0  0  0  0  0  0  0  0  0
   11.4353   -2.9204   17.8044 C   0  0  0  0  0  0  0  0  0  0  0  0
   11.1529   -4.3028   22.1277 C   0  0  0  0  0  0  0  0  0  0  0  0
   11.1290   -4.8502   19.8052 C   0  0  0  0  0  0  0  0  0  0  0  0
   12.4329   -4.2159   24.4224 C   0  0  0  0  0  0  0  0  0  0  0  0
    3.4740   -9.0387   16.5022 C   0  0  0  0  0  0  0  0  0  0  0  0
    6.8384   -7.9290   17.5282 N   0  0  0  0  0  0  0  0  0  0  0  0
    9.4126   -5.9853   18.4899 C   0  0  0  0  0  0  0  0  0  0  0  0
    4.2064  -10.3242   18.3302 C   0  0  0  0  0  0  0  0  0  0  0  0
    9.6599   -4.1551   16.4796 N   0  0  0  0  0  0  0  0  0  0  0  0
    7.0644   -6.4612   15.7375 N   0  0  0  0  0  0  0  0  0  0  0  0
    5.3549   -9.6322   18.3190 C   0  0  0  0  0  0  0  0  0  0  0  0
   10.3704   -4.9638   18.6510 C   0  0  0  0  0  0  0  0  0  0  0  0
    5.5935   -8.6419   17.4234 C   0  0  0  0  0  0  0  0  0  0  0  0
   13.0726   -4.6648   23.3394 O   0  0  0  0  0  0  0  0  0  0  0  0
    8.5955   -6.0705   17.3996 C   0  0  0  0  0  0  0  0  0  0  0  0
    4.6223   -8.3832   16.5030 C   0  0  0  0  0  0  0  0  0  0  0  0
   12.4690   -5.2624   19.9024 C   0  0  0  0  0  0  0  0  0  0  0  0
    3.2548   -9.9919   17.4189 C   0  0  0  0  0  0  0  0  0  0  0  0
   12.4767   -4.7393   22.1790 C   0  0  0  0  0  0  0  0  0  0  0  0
    7.8593   -5.3772   15.3569 N   0  0  0  0  0  0  0  0  0  0  0  0
    7.4412   -6.9038   16.9283 C   0  0  0  0  0  0  0  0  0  0  0  0
  1 21  4  0
  1 23  4  0
  2  5  1  0
  2 13  4  0
  2 16  4  0
  3  6  4  0
  3  7  4  0
  4 13  4  0
  4 19  4  0
  4 24  4  0
  6 23  4  0
  7 16  1  0
  7 21  4  0
  8 18  1  0
  9 20  4  0
  9 22  4  0
 10 17  1  0
 10 25  1  0
 11 16  4  0
 11 19  4  0
 12 15  4  0
 12 22  4  0
 14 24  4  0
 14 25  4  0
 15 17  4  0
 17 20  4  0
 18 23  1  0
 19 25  4  0
M  END
$$$$

 Created by Python create_sdf_string function

 25 28  0  0  0  0  0  0  0  0999 V2000
   13.1533   -5.2399   21.0682 C   0  0  0  0  0  0  0  0  0  0  0  0
   10.4729   -4.0295   17.6135 C   0  0  0  0  0  0  0  0  0  0  0  0
   10.4789   -4.3641   20.9564 C   0  0  0  0  0  0  0  0  0  0  0  0
    8.7421   -5.1412   16.3650 C   0  0  0  0  0  0  0  0  0  0  0  0
   11.4353   -2.9204   17.8044 C   0  0  0  0  0  0  0  0  0  0  0  0
   11.1529   -4.3028   22.1277 C   0  0  0  0  0  0  0  0  0  0  0  0
   11.1290   -4.8502   19.8052 C   0  0  0  0  0  0  0  0  0  0  0  0
   12.4329   -4.2159   24.4224 C   0  0  0  0  0  0  0  0  0  0  0  0
    3.4740   -9.0387   16.5022 C   0  0  0  0  0  0  0  0  0  0  0  0
    6.8384   -7.9290   17.5282 N   0  0  0  0  0  0  0  0  0  0  0  0
    9.4126   -5.9853   18.4899 C   0  0  0  0  0  0  0  0  0  0  0  0
    4.2064  -10.3242   18.3302 C   0  0  0  0  0  0  0  0  0  0  0  0
    9.6599   -4.1551   16.4796 N   0  0  0  0  0  0  0  0  0  0  0  0
    7.0644   -6.4612   15.7375 N   0  0  0  0  0  0  0  0  0  0  0  0
    5.3549   -9.6322   18.3190 C   0  0  0  0  0  0  0  0  0  0  0  0
   10.3704   -4.9638   18.6510 C   0  0  0  0  0  0  0  0  0  0  0  0
    5.5935   -8.6419   17.4234 C   0  0  0  0  0  0  0  0  0  0  0  0
   13.0726   -4.6648   23.3394 O   0  0  0  0  0  0  0  0  0  0  0  0
    8.5955   -6.0705   17.3996 C   0  0  0  0  0  0  0  0  0  0  0  0
    4.6223   -8.3832   16.5030 C   0  0  0  0  0  0  0  0  0  0  0  0
   12.4690   -5.2624   19.9024 C   0  0  0  0  0  0  0  0  0  0  0  0
    3.2548   -9.9919   17.4189 C   0  0  0  0  0  0  0  0  0  0  0  0
   12.4767   -4.7393   22.1790 C   0  0  0  0  0  0  0  0  0  0  0  0
    7.8593   -5.3772   15.3569 N   0  0  0  0  0  0  0  0  0  0  0  0
    7.4412   -6.9038   16.9283 C   0  0  0  0  0  0  0  0  0  0  0  0
  1 21  4  0
  1 23  4  0
  2  5  1  0
  2 13  4  0
  2 16  4  0
  3  6  4  0
  3  7  4  0
  4 13  4  0
  4 19  4  0
  4 24  4  0
  6 23  4  0
  7 16  1  0
  7 21  4  0
  8 18  1  0
  9 20  4  0
  9 22  4  0
 10 17  1  0
 10 25  1  0
 11 16  4  0
 11 19  4  0
 12 15  4  0
 12 22  4  0
 14 24  4  0
 14 25  4  0
 15 17  4  0
 17 20  4  0
 18 23  1  0
 19 25  4  0
M  END
$$$$

 Created by Python create_sdf_string function

 25 28  0  0  0  0  0  0  0  0999 V2000
   13.1533   -5.2399   21.0682 C   0  0  0  0  0  0  0  0  0  0  0  0
   10.4729   -4.0295   17.6135 C   0  0  0  0  0  0  0  0  0  0  0  0
   10.4789   -4.3641   20.9564 C   0  0  0  0  0  0  0  0  0  0  0  0
    8.7421   -5.1412   16.3650 C   0  0  0  0  0  0  0  0  0  0  0  0
   11.4353   -2.9204   17.8044 C   0  0  0  0  0  0  0  0  0  0  0  0
   11.1529   -4.3028   22.1277 C   0  0  0  0  0  0  0  0  0  0  0  0
   11.1290   -4.8502   19.8052 C   0  0  0  0  0  0  0  0  0  0  0  0
   12.4329   -4.2159   24.4224 C   0  0  0  0  0  0  0  0  0  0  0  0
    3.4740   -9.0387   16.5022 C   0  0  0  0  0  0  0  0  0  0  0  0
    6.8384   -7.9290   17.5282 N   0  0  0  0  0  0  0  0  0  0  0  0
    9.4126   -5.9853   18.4899 C   0  0  0  0  0  0  0  0  0  0  0  0
    4.2064  -10.3242   18.3302 C   0  0  0  0  0  0  0  0  0  0  0  0
    9.6599   -4.1551   16.4796 N   0  0  0  0  0  0  0  0  0  0  0  0
    7.0644   -6.4612   15.7375 N   0  0  0  0  0  0  0  0  0  0  0  0
    5.3549   -9.6322   18.3190 C   0  0  0  0  0  0  0  0  0  0  0  0
   10.3704   -4.9638   18.6510 C   0  0  0  0  0  0  0  0  0  0  0  0
    5.5935   -8.6419   17.4234 C   0  0  0  0  0  0  0  0  0  0  0  0
   13.0726   -4.6648   23.3394 O   0  0  0  0  0  0  0  0  0  0  0  0
    8.5955   -6.0705   17.3996 C   0  0  0  0  0  0  0  0  0  0  0  0
    4.6223   -8.3832   16.5030 C   0  0  0  0  0  0  0  0  0  0  0  0
   12.4690   -5.2624   19.9024 C   0  0  0  0  0  0  0  0  0  0  0  0
    3.2548   -9.9919   17.4189 C   0  0  0  0  0  0  0  0  0  0  0  0
   12.4767   -4.7393   22.1790 C   0  0  0  0  0  0  0  0  0  0  0  0
    7.8593   -5.3772   15.3569 N   0  0  0  0  0  0  0  0  0  0  0  0
    7.4412   -6.9038   16.9283 C   0  0  0  0  0  0  0  0  0  0  0  0
  1 21  4  0
  1 23  4  0
  2  5  1  0
  2 13  4  0
  2 16  4  0
  3  6  4  0
  3  7  4  0
  4 13  4  0
  4 19  4  0
  4 24  4  0
  6 23  4  0
  7 16  1  0
  7 21  4  0
  8 18  1  0
  9 20  4  0
  9 22  4  0
 10 17  1  0
 10 25  1  0
 11 16  4  0
 11 19  4  0
 12 15  4  0
 12 22  4  0
 14 24  4  0
 14 25  4  0
 15 17  4  0
 17 20  4  0
 18 23  1  0
 19 25  4  0
M  END
$$$$

 Created by Python create_sdf_string function

 25 28  0  0  0  0  0  0  0  0999 V2000
   13.1533   -5.2399   21.0682 C   0  0  0  0  0  0  0  0  0  0  0  0
   10.4729   -4.0295   17.6135 C   0  0  0  0  0  0  0  0  0  0  0  0
   10.4789   -4.3641   20.9564 C   0  0  0  0  0  0  0  0  0  0  0  0
    8.7421   -5.1412   16.3650 C   0  0  0  0  0  0  0  0  0  0  0  0
   11.4353   -2.9204   17.8044 C   0  0  0  0  0  0  0  0  0  0  0  0
   11.1529   -4.3028   22.1277 C   0  0  0  0  0  0  0  0  0  0  0  0
   11.1290   -4.8502   19.8052 C   0  0  0  0  0  0  0  0  0  0  0  0
   12.4329   -4.2159   24.4224 C   0  0  0  0  0  0  0  0  0  0  0  0
    3.4740   -9.0387   16.5022 C   0  0  0  0  0  0  0  0  0  0  0  0
    6.8384   -7.9290   17.5282 N   0  0  0  0  0  0  0  0  0  0  0  0
    9.4126   -5.9853   18.4899 C   0  0  0  0  0  0  0  0  0  0  0  0
    4.2064  -10.3242   18.3302 C   0  0  0  0  0  0  0  0  0  0  0  0
    9.6599   -4.1551   16.4796 N   0  0  0  0  0  0  0  0  0  0  0  0
    7.0644   -6.4612   15.7375 N   0  0  0  0  0  0  0  0  0  0  0  0
    5.3549   -9.6322   18.3190 C   0  0  0  0  0  0  0  0  0  0  0  0
   10.3704   -4.9638   18.6510 C   0  0  0  0  0  0  0  0  0  0  0  0
    5.5935   -8.6419   17.4234 C   0  0  0  0  0  0  0  0  0  0  0  0
   13.0726   -4.6648   23.3394 O   0  0  0  0  0  0  0  0  0  0  0  0
    8.5955   -6.0705   17.3996 C   0  0  0  0  0  0  0  0  0  0  0  0
    4.6223   -8.3832   16.5030 C   0  0  0  0  0  0  0  0  0  0  0  0
   12.4690   -5.2624   19.9024 C   0  0  0  0  0  0  0  0  0  0  0  0
    3.2548   -9.9919   17.4189 C   0  0  0  0  0  0  0  0  0  0  0  0
   12.4767   -4.7393   22.1790 C   0  0  0  0  0  0  0  0  0  0  0  0
    7.8593   -5.3772   15.3569 N   0  0  0  0  0  0  0  0  0  0  0  0
    7.4412   -6.9038   16.9283 C   0  0  0  0  0  0  0  0  0  0  0  0
  1 21  4  0
  1 23  4  0
  2  5  1  0
  2 13  4  0
  2 16  4  0
  3  6  4  0
  3  7  4  0
  4 13  4  0
  4 19  4  0
  4 24  4  0
  6 23  4  0
  7 16  1  0
  7 21  4  0
  8 18  1  0
  9 20  4  0
  9 22  4  0
 10 17  1  0
 10 25  1  0
 11 16  4  0
 11 19  4  0
 12 15  4  0
 12 22  4  0
 14 24  4  0
 14 25  4  0
 15 17  4  0
 17 20  4  0
 18 23  1  0
 19 25  4  0
M  END
$$$$

 Created by Python create_sdf_string function

 25 28  0  0  0  0  0  0  0  0999 V2000
   13.1533   -5.2399   21.0682 C   0  0  0  0  0  0  0  0  0  0  0  0
   10.4729   -4.0295   17.6135 C   0  0  0  0  0  0  0  0  0  0  0  0
   10.4789   -4.3641   20.9564 C   0  0  0  0  0  0  0  0  0  0  0  0
    8.7421   -5.1412   16.3650 C   0  0  0  0  0  0  0  0  0  0  0  0
   11.4353   -2.9204   17.8044 C   0  0  0  0  0  0  0  0  0  0  0  0
   11.1529   -4.3028   22.1277 C   0  0  0  0  0  0  0  0  0  0  0  0
   11.1290   -4.8502   19.8052 C   0  0  0  0  0  0  0  0  0  0  0  0
   12.4329   -4.2159   24.4224 C   0  0  0  0  0  0  0  0  0  0  0  0
    3.4740   -9.0387   16.5022 C   0  0  0  0  0  0  0  0  0  0  0  0
    6.8384   -7.9290   17.5282 N   0  0  0  0  0  0  0  0  0  0  0  0
    9.4126   -5.9853   18.4899 C   0  0  0  0  0  0  0  0  0  0  0  0
    4.2064  -10.3242   18.3302 C   0  0  0  0  0  0  0  0  0  0  0  0
    9.6599   -4.1551   16.4796 N   0  0  0  0  0  0  0  0  0  0  0  0
    7.0644   -6.4612   15.7375 N   0  0  0  0  0  0  0  0  0  0  0  0
    5.3549   -9.6322   18.3190 C   0  0  0  0  0  0  0  0  0  0  0  0
   10.3704   -4.9638   18.6510 C   0  0  0  0  0  0  0  0  0  0  0  0
    5.5935   -8.6419   17.4234 C   0  0  0  0  0  0  0  0  0  0  0  0
   13.0726   -4.6648   23.3394 O   0  0  0  0  0  0  0  0  0  0  0  0
    8.5955   -6.0705   17.3996 C   0  0  0  0  0  0  0  0  0  0  0  0
    4.6223   -8.3832   16.5030 C   0  0  0  0  0  0  0  0  0  0  0  0
   12.4690   -5.2624   19.9024 C   0  0  0  0  0  0  0  0  0  0  0  0
    3.2548   -9.9919   17.4189 C   0  0  0  0  0  0  0  0  0  0  0  0
   12.4767   -4.7393   22.1790 C   0  0  0  0  0  0  0  0  0  0  0  0
    7.8593   -5.3772   15.3569 N   0  0  0  0  0  0  0  0  0  0  0  0
    7.4412   -6.9038   16.9283 C   0  0  0  0  0  0  0  0  0  0  0  0
  1 21  4  0
  1 23  4  0
  2  5  1  0
  2 13  4  0
  2 16  4  0
  3  6  4  0
  3  7  4  0
  4 13  4  0
  4 19  4  0
  4 24  4  0
  6 23  4  0
  7 16  1  0
  7 21  4  0
  8 18  1  0
  9 20  4  0
  9 22  4  0
 10 17  1  0
 10 25  1  0
 11 16  4  0
 11 19  4  0
 12 15  4  0
 12 22  4  0
 14 24  4  0
 14 25  4  0
 15 17  4  0
 17 20  4  0
 18 23  1  0
 19 25  4  0
M  END
$$$$

 Created by Python create_sdf_string function

 25 28  0  0  0  0  0  0  0  0999 V2000
   13.1533   -5.2399   21.0682 C   0  0  0  0  0  0  0  0  0  0  0  0
   10.4729   -4.0295   17.6135 C   0  0  0  0  0  0  0  0  0  0  0  0
   10.4789   -4.3641   20.9564 C   0  0  0  0  0  0  0  0  0  0  0  0
    8.7421   -5.1412   16.3650 C   0  0  0  0  0  0  0  0  0  0  0  0
   11.4353   -2.9204   17.8044 C   0  0  0  0  0  0  0  0  0  0  0  0
   11.1529   -4.3028   22.1277 C   0  0  0  0  0  0  0  0  0  0  0  0
   11.1290   -4.8502   19.8052 C   0  0  0  0  0  0  0  0  0  0  0  0
   12.4329   -4.2159   24.4224 C   0  0  0  0  0  0  0  0  0  0  0  0
    3.4740   -9.0387   16.5022 C   0  0  0  0  0  0  0  0  0  0  0  0
    6.8384   -7.9290   17.5282 N   0  0  0  0  0  0  0  0  0  0  0  0
    9.4126   -5.9853   18.4899 C   0  0  0  0  0  0  0  0  0  0  0  0
    4.2064  -10.3242   18.3302 C   0  0  0  0  0  0  0  0  0  0  0  0
    9.6599   -4.1551   16.4796 N   0  0  0  0  0  0  0  0  0  0  0  0
    7.0644   -6.4612   15.7375 N   0  0  0  0  0  0  0  0  0  0  0  0
    5.3549   -9.6322   18.3190 C   0  0  0  0  0  0  0  0  0  0  0  0
   10.3704   -4.9638   18.6510 C   0  0  0  0  0  0  0  0  0  0  0  0
    5.5935   -8.6419   17.4234 C   0  0  0  0  0  0  0  0  0  0  0  0
   13.0726   -4.6648   23.3394 O   0  0  0  0  0  0  0  0  0  0  0  0
    8.5955   -6.0705   17.3996 C   0  0  0  0  0  0  0  0  0  0  0  0
    4.6223   -8.3832   16.5030 C   0  0  0  0  0  0  0  0  0  0  0  0
   12.4690   -5.2624   19.9024 C   0  0  0  0  0  0  0  0  0  0  0  0
    3.2548   -9.9919   17.4189 C   0  0  0  0  0  0  0  0  0  0  0  0
   12.4767   -4.7393   22.1790 C   0  0  0  0  0  0  0  0  0  0  0  0
    7.8593   -5.3772   15.3569 N   0  0  0  0  0  0  0  0  0  0  0  0
    7.4412   -6.9038   16.9283 C   0  0  0  0  0  0  0  0  0  0  0  0
  1 21  4  0
  1 23  4  0
  2  5  1  0
  2 13  4  0
  2 16  4  0
  3  6  4  0
  3  7  4  0
  4 13  4  0
  4 19  4  0
  4 24  4  0
  6 23  4  0
  7 16  1  0
  7 21  4  0
  8 18  1  0
  9 20  4  0
  9 22  4  0
 10 17  1  0
 10 25  1  0
 11 16  4  0
 11 19  4  0
 12 15  4  0
 12 22  4  0
 14 24  4  0
 14 25  4  0
 15 17  4  0
 17 20  4  0
 18 23  1  0
 19 25  4  0
M  END
$$$$

 Created by Python create_sdf_string function

 25 28  0  0  0  0  0  0  0  0999 V2000
   13.1533   -5.2399   21.0682 C   0  0  0  0  0  0  0  0  0  0  0  0
   10.4729   -4.0295   17.6135 C   0  0  0  0  0  0  0  0  0  0  0  0
   10.4789   -4.3641   20.9564 C   0  0  0  0  0  0  0  0  0  0  0  0
    8.7421   -5.1412   16.3650 C   0  0  0  0  0  0  0  0  0  0  0  0
   11.4353   -2.9204   17.8044 C   0  0  0  0  0  0  0  0  0  0  0  0
   11.1529   -4.3028   22.1277 C   0  0  0  0  0  0  0  0  0  0  0  0
   11.1290   -4.8502   19.8052 C   0  0  0  0  0  0  0  0  0  0  0  0
   12.4329   -4.2159   24.4224 C   0  0  0  0  0  0  0  0  0  0  0  0
    3.4740   -9.0387   16.5022 C   0  0  0  0  0  0  0  0  0  0  0  0
    6.8384   -7.9290   17.5282 N   0  0  0  0  0  0  0  0  0  0  0  0
    9.4126   -5.9853   18.4899 C   0  0  0  0  0  0  0  0  0  0  0  0
    4.2064  -10.3242   18.3302 C   0  0  0  0  0  0  0  0  0  0  0  0
    9.6599   -4.1551   16.4796 N   0  0  0  0  0  0  0  0  0  0  0  0
    7.0644   -6.4612   15.7375 N   0  0  0  0  0  0  0  0  0  0  0  0
    5.3549   -9.6322   18.3190 C   0  0  0  0  0  0  0  0  0  0  0  0
   10.3704   -4.9638   18.6510 C   0  0  0  0  0  0  0  0  0  0  0  0
    5.5935   -8.6419   17.4234 C   0  0  0  0  0  0  0  0  0  0  0  0
   13.0726   -4.6648   23.3394 O   0  0  0  0  0  0  0  0  0  0  0  0
    8.5955   -6.0705   17.3996 C   0  0  0  0  0  0  0  0  0  0  0  0
    4.6223   -8.3832   16.5030 C   0  0  0  0  0  0  0  0  0  0  0  0
   12.4690   -5.2624   19.9024 C   0  0  0  0  0  0  0  0  0  0  0  0
    3.2548   -9.9919   17.4189 C   0  0  0  0  0  0  0  0  0  0  0  0
   12.4767   -4.7393   22.1790 C   0  0  0  0  0  0  0  0  0  0  0  0
    7.8593   -5.3772   15.3569 N   0  0  0  0  0  0  0  0  0  0  0  0
    7.4412   -6.9038   16.9283 C   0  0  0  0  0  0  0  0  0  0  0  0
  1 21  4  0
  1 23  4  0
  2  5  1  0
  2 13  4  0
  2 16  4  0
  3  6  4  0
  3  7  4  0
  4 13  4  0
  4 19  4  0
  4 24  4  0
  6 23  4  0
  7 16  1  0
  7 21  4  0
  8 18  1  0
  9 20  4  0
  9 22  4  0
 10 17  1  0
 10 25  1  0
 11 16  4  0
 11 19  4  0
 12 15  4  0
 12 22  4  0
 14 24  4  0
 14 25  4  0
 15 17  4  0
 17 20  4  0
 18 23  1  0
 19 25  4  0
M  END
$$$$

 Created by Python create_sdf_string function

 25 28  0  0  0  0  0  0  0  0999 V2000
   13.1533   -5.2399   21.0682 C   0  0  0  0  0  0  0  0  0  0  0  0
   10.4729   -4.0295   17.6135 C   0  0  0  0  0  0  0  0  0  0  0  0
   10.4789   -4.3641   20.9564 C   0  0  0  0  0  0  0  0  0  0  0  0
    8.7421   -5.1412   16.3650 C   0  0  0  0  0  0  0  0  0  0  0  0
   11.4353   -2.9204   17.8044 C   0  0  0  0  0  0  0  0  0  0  0  0
   11.1529   -4.3028   22.1277 C   0  0  0  0  0  0  0  0  0  0  0  0
   11.1290   -4.8502   19.8052 C   0  0  0  0  0  0  0  0  0  0  0  0
   12.4329   -4.2159   24.4224 C   0  0  0  0  0  0  0  0  0  0  0  0
    3.4740   -9.0387   16.5022 C   0  0  0  0  0  0  0  0  0  0  0  0
    6.8384   -7.9290   17.5282 N   0  0  0  0  0  0  0  0  0  0  0  0
    9.4126   -5.9853   18.4899 C   0  0  0  0  0  0  0  0  0  0  0  0
    4.2064  -10.3242   18.3302 C   0  0  0  0  0  0  0  0  0  0  0  0
    9.6599   -4.1551   16.4796 N   0  0  0  0  0  0  0  0  0  0  0  0
    7.0644   -6.4612   15.7375 N   0  0  0  0  0  0  0  0  0  0  0  0
    5.3549   -9.6322   18.3190 C   0  0  0  0  0  0  0  0  0  0  0  0
   10.3704   -4.9638   18.6510 C   0  0  0  0  0  0  0  0  0  0  0  0
    5.5935   -8.6419   17.4234 C   0  0  0  0  0  0  0  0  0  0  0  0
   13.0726   -4.6648   23.3394 O   0  0  0  0  0  0  0  0  0  0  0  0
    8.5955   -6.0705   17.3996 C   0  0  0  0  0  0  0  0  0  0  0  0
    4.6223   -8.3832   16.5030 C   0  0  0  0  0  0  0  0  0  0  0  0
   12.4690   -5.2624   19.9024 C   0  0  0  0  0  0  0  0  0  0  0  0
    3.2548   -9.9919   17.4189 C   0  0  0  0  0  0  0  0  0  0  0  0
   12.4767   -4.7393   22.1790 C   0  0  0  0  0  0  0  0  0  0  0  0
    7.8593   -5.3772   15.3569 N   0  0  0  0  0  0  0  0  0  0  0  0
    7.4412   -6.9038   16.9283 C   0  0  0  0  0  0  0  0  0  0  0  0
  1 21  4  0
  1 23  4  0
  2  5  1  0
  2 13  4  0
  2 16  4  0
  3  6  4  0
  3  7  4  0
  4 13  4  0
  4 19  4  0
  4 24  4  0
  6 23  4  0
  7 16  1  0
  7 21  4  0
  8 18  1  0
  9 20  4  0
  9 22  4  0
 10 17  1  0
 10 25  1  0
 11 16  4  0
 11 19  4  0
 12 15  4  0
 12 22  4  0
 14 24  4  0
 14 25  4  0
 15 17  4  0
 17 20  4  0
 18 23  1  0
 19 25  4  0
M  END
$$$$

 Created by Python create_sdf_string function

 25 28  0  0  0  0  0  0  0  0999 V2000
   13.1533   -5.2399   21.0682 C   0  0  0  0  0  0  0  0  0  0  0  0
   10.4729   -4.0295   17.6135 C   0  0  0  0  0  0  0  0  0  0  0  0
   10.4789   -4.3641   20.9564 C   0  0  0  0  0  0  0  0  0  0  0  0
    8.7421   -5.1412   16.3650 C   0  0  0  0  0  0  0  0  0  0  0  0
   11.4353   -2.9204   17.8044 C   0  0  0  0  0  0  0  0  0  0  0  0
   11.1529   -4.3028   22.1277 C   0  0  0  0  0  0  0  0  0  0  0  0
   11.1290   -4.8502   19.8052 C   0  0  0  0  0  0  0  0  0  0  0  0
   12.4329   -4.2159   24.4224 C   0  0  0  0  0  0  0  0  0  0  0  0
    3.4740   -9.0387   16.5022 C   0  0  0  0  0  0  0  0  0  0  0  0
    6.8384   -7.9290   17.5282 N   0  0  0  0  0  0  0  0  0  0  0  0
    9.4126   -5.9853   18.4899 C   0  0  0  0  0  0  0  0  0  0  0  0
    4.2064  -10.3242   18.3302 C   0  0  0  0  0  0  0  0  0  0  0  0
    9.6599   -4.1551   16.4796 N   0  0  0  0  0  0  0  0  0  0  0  0
    7.0644   -6.4612   15.7375 N   0  0  0  0  0  0  0  0  0  0  0  0
    5.3549   -9.6322   18.3190 C   0  0  0  0  0  0  0  0  0  0  0  0
   10.3704   -4.9638   18.6510 C   0  0  0  0  0  0  0  0  0  0  0  0
    5.5935   -8.6419   17.4234 C   0  0  0  0  0  0  0  0  0  0  0  0
   13.0726   -4.6648   23.3394 O   0  0  0  0  0  0  0  0  0  0  0  0
    8.5955   -6.0705   17.3996 C   0  0  0  0  0  0  0  0  0  0  0  0
    4.6223   -8.3832   16.5030 C   0  0  0  0  0  0  0  0  0  0  0  0
   12.4690   -5.2624   19.9024 C   0  0  0  0  0  0  0  0  0  0  0  0
    3.2548   -9.9919   17.4189 C   0  0  0  0  0  0  0  0  0  0  0  0
   12.4767   -4.7393   22.1790 C   0  0  0  0  0  0  0  0  0  0  0  0
    7.8593   -5.3772   15.3569 N   0  0  0  0  0  0  0  0  0  0  0  0
    7.4412   -6.9038   16.9283 C   0  0  0  0  0  0  0  0  0  0  0  0
  1 21  4  0
  1 23  4  0
  2  5  1  0
  2 13  4  0
  2 16  4  0
  3  6  4  0
  3  7  4  0
  4 13  4  0
  4 19  4  0
  4 24  4  0
  6 23  4  0
  7 16  1  0
  7 21  4  0
  8 18  1  0
  9 20  4  0
  9 22  4  0
 10 17  1  0
 10 25  1  0
 11 16  4  0
 11 19  4  0
 12 15  4  0
 12 22  4  0
 14 24  4  0
 14 25  4  0
 15 17  4  0
 17 20  4  0
 18 23  1  0
 19 25  4  0
M  END
$$$$

 Created by Python create_sdf_string function

 25 28  0  0  0  0  0  0  0  0999 V2000
   13.1533   -5.2399   21.0682 C   0  0  0  0  0  0  0  0  0  0  0  0
   10.4729   -4.0295   17.6135 C   0  0  0  0  0  0  0  0  0  0  0  0
   10.4789   -4.3641   20.9564 C   0  0  0  0  0  0  0  0  0  0  0  0
    8.7421   -5.1412   16.3650 C   0  0  0  0  0  0  0  0  0  0  0  0
   11.4353   -2.9204   17.8044 C   0  0  0  0  0  0  0  0  0  0  0  0
   11.1529   -4.3028   22.1277 C   0  0  0  0  0  0  0  0  0  0  0  0
   11.1290   -4.8502   19.8052 C   0  0  0  0  0  0  0  0  0  0  0  0
   12.4329   -4.2159   24.4224 C   0  0  0  0  0  0  0  0  0  0  0  0
    3.4740   -9.0387   16.5022 C   0  0  0  0  0  0  0  0  0  0  0  0
    6.8384   -7.9290   17.5282 N   0  0  0  0  0  0  0  0  0  0  0  0
    9.4126   -5.9853   18.4899 C   0  0  0  0  0  0  0  0  0  0  0  0
    4.2064  -10.3242   18.3302 C   0  0  0  0  0  0  0  0  0  0  0  0
    9.6599   -4.1551   16.4796 N   0  0  0  0  0  0  0  0  0  0  0  0
    7.0644   -6.4612   15.7375 N   0  0  0  0  0  0  0  0  0  0  0  0
    5.3549   -9.6322   18.3190 C   0  0  0  0  0  0  0  0  0  0  0  0
   10.3704   -4.9638   18.6510 C   0  0  0  0  0  0  0  0  0  0  0  0
    5.5935   -8.6419   17.4234 C   0  0  0  0  0  0  0  0  0  0  0  0
   13.0726   -4.6648   23.3394 O   0  0  0  0  0  0  0  0  0  0  0  0
    8.5955   -6.0705   17.3996 C   0  0  0  0  0  0  0  0  0  0  0  0
    4.6223   -8.3832   16.5030 C   0  0  0  0  0  0  0  0  0  0  0  0
   12.4690   -5.2624   19.9024 C   0  0  0  0  0  0  0  0  0  0  0  0
    3.2548   -9.9919   17.4189 C   0  0  0  0  0  0  0  0  0  0  0  0
   12.4767   -4.7393   22.1790 C   0  0  0  0  0  0  0  0  0  0  0  0
    7.8593   -5.3772   15.3569 N   0  0  0  0  0  0  0  0  0  0  0  0
    7.4412   -6.9038   16.9283 C   0  0  0  0  0  0  0  0  0  0  0  0
  1 21  4  0
  1 23  4  0
  2  5  1  0
  2 13  4  0
  2 16  4  0
  3  6  4  0
  3  7  4  0
  4 13  4  0
  4 19  4  0
  4 24  4  0
  6 23  4  0
  7 16  1  0
  7 21  4  0
  8 18  1  0
  9 20  4  0
  9 22  4  0
 10 17  1  0
 10 25  1  0
 11 16  4  0
 11 19  4  0
 12 15  4  0
 12 22  4  0
 14 24  4  0
 14 25  4  0
 15 17  4  0
 17 20  4  0
 18 23  1  0
 19 25  4  0
M  END
$$$$

 Created by Python create_sdf_string function

 25 28  0  0  0  0  0  0  0  0999 V2000
   13.1533   -5.2399   21.0682 C   0  0  0  0  0  0  0  0  0  0  0  0
   10.4729   -4.0295   17.6135 C   0  0  0  0  0  0  0  0  0  0  0  0
   10.4789   -4.3641   20.9564 C   0  0  0  0  0  0  0  0  0  0  0  0
    8.7421   -5.1412   16.3650 C   0  0  0  0  0  0  0  0  0  0  0  0
   11.4353   -2.9204   17.8044 C   0  0  0  0  0  0  0  0  0  0  0  0
   11.1529   -4.3028   22.1277 C   0  0  0  0  0  0  0  0  0  0  0  0
   11.1290   -4.8502   19.8052 C   0  0  0  0  0  0  0  0  0  0  0  0
   12.4329   -4.2159   24.4224 C   0  0  0  0  0  0  0  0  0  0  0  0
    3.4740   -9.0387   16.5022 C   0  0  0  0  0  0  0  0  0  0  0  0
    6.8384   -7.9290   17.5282 N   0  0  0  0  0  0  0  0  0  0  0  0
    9.4126   -5.9853   18.4899 C   0  0  0  0  0  0  0  0  0  0  0  0
    4.2064  -10.3242   18.3302 C   0  0  0  0  0  0  0  0  0  0  0  0
    9.6599   -4.1551   16.4796 N   0  0  0  0  0  0  0  0  0  0  0  0
    7.0644   -6.4612   15.7375 N   0  0  0  0  0  0  0  0  0  0  0  0
    5.3549   -9.6322   18.3190 C   0  0  0  0  0  0  0  0  0  0  0  0
   10.3704   -4.9638   18.6510 C   0  0  0  0  0  0  0  0  0  0  0  0
    5.5935   -8.6419   17.4234 C   0  0  0  0  0  0  0  0  0  0  0  0
   13.0726   -4.6648   23.3394 O   0  0  0  0  0  0  0  0  0  0  0  0
    8.5955   -6.0705   17.3996 C   0  0  0  0  0  0  0  0  0  0  0  0
    4.6223   -8.3832   16.5030 C   0  0  0  0  0  0  0  0  0  0  0  0
   12.4690   -5.2624   19.9024 C   0  0  0  0  0  0  0  0  0  0  0  0
    3.2548   -9.9919   17.4189 C   0  0  0  0  0  0  0  0  0  0  0  0
   12.4767   -4.7393   22.1790 C   0  0  0  0  0  0  0  0  0  0  0  0
    7.8593   -5.3772   15.3569 N   0  0  0  0  0  0  0  0  0  0  0  0
    7.4412   -6.9038   16.9283 C   0  0  0  0  0  0  0  0  0  0  0  0
  1 21  4  0
  1 23  4  0
  2  5  1  0
  2 13  4  0
  2 16  4  0
  3  6  4  0
  3  7  4  0
  4 13  4  0
  4 19  4  0
  4 24  4  0
  6 23  4  0
  7 16  1  0
  7 21  4  0
  8 18  1  0
  9 20  4  0
  9 22  4  0
 10 17  1  0
 10 25  1  0
 11 16  4  0
 11 19  4  0
 12 15  4  0
 12 22  4  0
 14 24  4  0
 14 25  4  0
 15 17  4  0
 17 20  4  0
 18 23  1  0
 19 25  4  0
M  END
$$$$

 Created by Python create_sdf_string function

 25 28  0  0  0  0  0  0  0  0999 V2000
   13.1533   -5.2399   21.0682 C   0  0  0  0  0  0  0  0  0  0  0  0
   10.4729   -4.0295   17.6135 C   0  0  0  0  0  0  0  0  0  0  0  0
   10.4789   -4.3641   20.9564 C   0  0  0  0  0  0  0  0  0  0  0  0
    8.7421   -5.1412   16.3650 C   0  0  0  0  0  0  0  0  0  0  0  0
   11.4353   -2.9204   17.8044 C   0  0  0  0  0  0  0  0  0  0  0  0
   11.1529   -4.3028   22.1277 C   0  0  0  0  0  0  0  0  0  0  0  0
   11.1290   -4.8502   19.8052 C   0  0  0  0  0  0  0  0  0  0  0  0
   12.4329   -4.2159   24.4224 C   0  0  0  0  0  0  0  0  0  0  0  0
    3.4740   -9.0387   16.5022 C   0  0  0  0  0  0  0  0  0  0  0  0
    6.8384   -7.9290   17.5282 N   0  0  0  0  0  0  0  0  0  0  0  0
    9.4126   -5.9853   18.4899 C   0  0  0  0  0  0  0  0  0  0  0  0
    4.2064  -10.3242   18.3302 C   0  0  0  0  0  0  0  0  0  0  0  0
    9.6599   -4.1551   16.4796 N   0  0  0  0  0  0  0  0  0  0  0  0
    7.0644   -6.4612   15.7375 N   0  0  0  0  0  0  0  0  0  0  0  0
    5.3549   -9.6322   18.3190 C   0  0  0  0  0  0  0  0  0  0  0  0
   10.3704   -4.9638   18.6510 C   0  0  0  0  0  0  0  0  0  0  0  0
    5.5935   -8.6419   17.4234 C   0  0  0  0  0  0  0  0  0  0  0  0
   13.0726   -4.6648   23.3394 O   0  0  0  0  0  0  0  0  0  0  0  0
    8.5955   -6.0705   17.3996 C   0  0  0  0  0  0  0  0  0  0  0  0
    4.6223   -8.3832   16.5030 C   0  0  0  0  0  0  0  0  0  0  0  0
   12.4690   -5.2624   19.9024 C   0  0  0  0  0  0  0  0  0  0  0  0
    3.2548   -9.9919   17.4189 C   0  0  0  0  0  0  0  0  0  0  0  0
   12.4767   -4.7393   22.1790 C   0  0  0  0  0  0  0  0  0  0  0  0
    7.8593   -5.3772   15.3569 N   0  0  0  0  0  0  0  0  0  0  0  0
    7.4412   -6.9038   16.9283 C   0  0  0  0  0  0  0  0  0  0  0  0
  1 21  4  0
  1 23  4  0
  2  5  1  0
  2 13  4  0
  2 16  4  0
  3  6  4  0
  3  7  4  0
  4 13  4  0
  4 19  4  0
  4 24  4  0
  6 23  4  0
  7 16  1  0
  7 21  4  0
  8 18  1  0
  9 20  4  0
  9 22  4  0
 10 17  1  0
 10 25  1  0
 11 16  4  0
 11 19  4  0
 12 15  4  0
 12 22  4  0
 14 24  4  0
 14 25  4  0
 15 17  4  0
 17 20  4  0
 18 23  1  0
 19 25  4  0
M  END
$$$$

 Created by Python create_sdf_string function

 25 28  0  0  0  0  0  0  0  0999 V2000
   13.1533   -5.2399   21.0682 C   0  0  0  0  0  0  0  0  0  0  0  0
   10.4729   -4.0295   17.6135 C   0  0  0  0  0  0  0  0  0  0  0  0
   10.4789   -4.3641   20.9564 C   0  0  0  0  0  0  0  0  0  0  0  0
    8.7421   -5.1412   16.3650 C   0  0  0  0  0  0  0  0  0  0  0  0
   11.4353   -2.9204   17.8044 C   0  0  0  0  0  0  0  0  0  0  0  0
   11.1529   -4.3028   22.1277 C   0  0  0  0  0  0  0  0  0  0  0  0
   11.1290   -4.8502   19.8052 C   0  0  0  0  0  0  0  0  0  0  0  0
   12.4329   -4.2159   24.4224 C   0  0  0  0  0  0  0  0  0  0  0  0
    3.4740   -9.0387   16.5022 C   0  0  0  0  0  0  0  0  0  0  0  0
    6.8384   -7.9290   17.5282 N   0  0  0  0  0  0  0  0  0  0  0  0
    9.4126   -5.9853   18.4899 C   0  0  0  0  0  0  0  0  0  0  0  0
    4.2064  -10.3242   18.3302 C   0  0  0  0  0  0  0  0  0  0  0  0
    9.6599   -4.1551   16.4796 N   0  0  0  0  0  0  0  0  0  0  0  0
    7.0644   -6.4612   15.7375 N   0  0  0  0  0  0  0  0  0  0  0  0
    5.3549   -9.6322   18.3190 C   0  0  0  0  0  0  0  0  0  0  0  0
   10.3704   -4.9638   18.6510 C   0  0  0  0  0  0  0  0  0  0  0  0
    5.5935   -8.6419   17.4234 C   0  0  0  0  0  0  0  0  0  0  0  0
   13.0726   -4.6648   23.3394 O   0  0  0  0  0  0  0  0  0  0  0  0
    8.5955   -6.0705   17.3996 C   0  0  0  0  0  0  0  0  0  0  0  0
    4.6223   -8.3832   16.5030 C   0  0  0  0  0  0  0  0  0  0  0  0
   12.4690   -5.2624   19.9024 C   0  0  0  0  0  0  0  0  0  0  0  0
    3.2548   -9.9919   17.4189 C   0  0  0  0  0  0  0  0  0  0  0  0
   12.4767   -4.7393   22.1790 C   0  0  0  0  0  0  0  0  0  0  0  0
    7.8593   -5.3772   15.3569 N   0  0  0  0  0  0  0  0  0  0  0  0
    7.4412   -6.9038   16.9283 C   0  0  0  0  0  0  0  0  0  0  0  0
  1 21  4  0
  1 23  4  0
  2  5  1  0
  2 13  4  0
  2 16  4  0
  3  6  4  0
  3  7  4  0
  4 13  4  0
  4 19  4  0
  4 24  4  0
  6 23  4  0
  7 16  1  0
  7 21  4  0
  8 18  1  0
  9 20  4  0
  9 22  4  0
 10 17  1  0
 10 25  1  0
 11 16  4  0
 11 19  4  0
 12 15  4  0
 12 22  4  0
 14 24  4  0
 14 25  4  0
 15 17  4  0
 17 20  4  0
 18 23  1  0
 19 25  4  0
M  END
$$$$

 Created by Python create_sdf_string function

 25 28  0  0  0  0  0  0  0  0999 V2000
   13.1533   -5.2399   21.0682 C   0  0  0  0  0  0  0  0  0  0  0  0
   10.4729   -4.0295   17.6135 C   0  0  0  0  0  0  0  0  0  0  0  0
   10.4789   -4.3641   20.9564 C   0  0  0  0  0  0  0  0  0  0  0  0
    8.7421   -5.1412   16.3650 C   0  0  0  0  0  0  0  0  0  0  0  0
   11.4353   -2.9204   17.8044 C   0  0  0  0  0  0  0  0  0  0  0  0
   11.1529   -4.3028   22.1277 C   0  0  0  0  0  0  0  0  0  0  0  0
   11.1290   -4.8502   19.8052 C   0  0  0  0  0  0  0  0  0  0  0  0
   12.4329   -4.2159   24.4224 C   0  0  0  0  0  0  0  0  0  0  0  0
    3.4740   -9.0387   16.5022 C   0  0  0  0  0  0  0  0  0  0  0  0
    6.8384   -7.9290   17.5282 N   0  0  0  0  0  0  0  0  0  0  0  0
    9.4126   -5.9853   18.4899 C   0  0  0  0  0  0  0  0  0  0  0  0
    4.2064  -10.3242   18.3302 C   0  0  0  0  0  0  0  0  0  0  0  0
    9.6599   -4.1551   16.4796 N   0  0  0  0  0  0  0  0  0  0  0  0
    7.0644   -6.4612   15.7375 N   0  0  0  0  0  0  0  0  0  0  0  0
    5.3549   -9.6322   18.3190 C   0  0  0  0  0  0  0  0  0  0  0  0
   10.3704   -4.9638   18.6510 C   0  0  0  0  0  0  0  0  0  0  0  0
    5.5935   -8.6419   17.4234 C   0  0  0  0  0  0  0  0  0  0  0  0
   13.0726   -4.6648   23.3394 O   0  0  0  0  0  0  0  0  0  0  0  0
    8.5955   -6.0705   17.3996 C   0  0  0  0  0  0  0  0  0  0  0  0
    4.6223   -8.3832   16.5030 C   0  0  0  0  0  0  0  0  0  0  0  0
   12.4690   -5.2624   19.9024 C   0  0  0  0  0  0  0  0  0  0  0  0
    3.2548   -9.9919   17.4189 C   0  0  0  0  0  0  0  0  0  0  0  0
   12.4767   -4.7393   22.1790 C   0  0  0  0  0  0  0  0  0  0  0  0
    7.8593   -5.3772   15.3569 N   0  0  0  0  0  0  0  0  0  0  0  0
    7.4412   -6.9038   16.9283 C   0  0  0  0  0  0  0  0  0  0  0  0
  1 21  4  0
  1 23  4  0
  2  5  1  0
  2 13  4  0
  2 16  4  0
  3  6  4  0
  3  7  4  0
  4 13  4  0
  4 19  4  0
  4 24  4  0
  6 23  4  0
  7 16  1  0
  7 21  4  0
  8 18  1  0
  9 20  4  0
  9 22  4  0
 10 17  1  0
 10 25  1  0
 11 16  4  0
 11 19  4  0
 12 15  4  0
 12 22  4  0
 14 24  4  0
 14 25  4  0
 15 17  4  0
 17 20  4  0
 18 23  1  0
 19 25  4  0
M  END
$$$$

 Created by Python create_sdf_string function

 25 28  0  0  0  0  0  0  0  0999 V2000
   13.1533   -5.2399   21.0682 C   0  0  0  0  0  0  0  0  0  0  0  0
   10.4729   -4.0295   17.6135 C   0  0  0  0  0  0  0  0  0  0  0  0
   10.4789   -4.3641   20.9564 C   0  0  0  0  0  0  0  0  0  0  0  0
    8.7421   -5.1412   16.3650 C   0  0  0  0  0  0  0  0  0  0  0  0
   11.4353   -2.9204   17.8044 C   0  0  0  0  0  0  0  0  0  0  0  0
   11.1529   -4.3028   22.1277 C   0  0  0  0  0  0  0  0  0  0  0  0
   11.1290   -4.8502   19.8052 C   0  0  0  0  0  0  0  0  0  0  0  0
   12.4329   -4.2159   24.4224 C   0  0  0  0  0  0  0  0  0  0  0  0
    3.4740   -9.0387   16.5022 C   0  0  0  0  0  0  0  0  0  0  0  0
    6.8384   -7.9290   17.5282 N   0  0  0  0  0  0  0  0  0  0  0  0
    9.4126   -5.9853   18.4899 C   0  0  0  0  0  0  0  0  0  0  0  0
    4.2064  -10.3242   18.3302 C   0  0  0  0  0  0  0  0  0  0  0  0
    9.6599   -4.1551   16.4796 N   0  0  0  0  0  0  0  0  0  0  0  0
    7.0644   -6.4612   15.7375 N   0  0  0  0  0  0  0  0  0  0  0  0
    5.3549   -9.6322   18.3190 C   0  0  0  0  0  0  0  0  0  0  0  0
   10.3704   -4.9638   18.6510 C   0  0  0  0  0  0  0  0  0  0  0  0
    5.5935   -8.6419   17.4234 C   0  0  0  0  0  0  0  0  0  0  0  0
   13.0726   -4.6648   23.3394 O   0  0  0  0  0  0  0  0  0  0  0  0
    8.5955   -6.0705   17.3996 C   0  0  0  0  0  0  0  0  0  0  0  0
    4.6223   -8.3832   16.5030 C   0  0  0  0  0  0  0  0  0  0  0  0
   12.4690   -5.2624   19.9024 C   0  0  0  0  0  0  0  0  0  0  0  0
    3.2548   -9.9919   17.4189 C   0  0  0  0  0  0  0  0  0  0  0  0
   12.4767   -4.7393   22.1790 C   0  0  0  0  0  0  0  0  0  0  0  0
    7.8593   -5.3772   15.3569 N   0  0  0  0  0  0  0  0  0  0  0  0
    7.4412   -6.9038   16.9283 C   0  0  0  0  0  0  0  0  0  0  0  0
  1 21  4  0
  1 23  4  0
  2  5  1  0
  2 13  4  0
  2 16  4  0
  3  6  4  0
  3  7  4  0
  4 13  4  0
  4 19  4  0
  4 24  4  0
  6 23  4  0
  7 16  1  0
  7 21  4  0
  8 18  1  0
  9 20  4  0
  9 22  4  0
 10 17  1  0
 10 25  1  0
 11 16  4  0
 11 19  4  0
 12 15  4  0
 12 22  4  0
 14 24  4  0
 14 25  4  0
 15 17  4  0
 17 20  4  0
 18 23  1  0
 19 25  4  0
M  END
$$$$

 Created by Python create_sdf_string function

 25 28  0  0  0  0  0  0  0  0999 V2000
   13.1533   -5.2399   21.0682 C   0  0  0  0  0  0  0  0  0  0  0  0
   10.4729   -4.0295   17.6135 C   0  0  0  0  0  0  0  0  0  0  0  0
   10.4789   -4.3641   20.9564 C   0  0  0  0  0  0  0  0  0  0  0  0
    8.7421   -5.1412   16.3650 C   0  0  0  0  0  0  0  0  0  0  0  0
   11.4353   -2.9204   17.8044 C   0  0  0  0  0  0  0  0  0  0  0  0
   11.1529   -4.3028   22.1277 C   0  0  0  0  0  0  0  0  0  0  0  0
   11.1290   -4.8502   19.8052 C   0  0  0  0  0  0  0  0  0  0  0  0
   12.4329   -4.2159   24.4224 C   0  0  0  0  0  0  0  0  0  0  0  0
    3.4740   -9.0387   16.5022 C   0  0  0  0  0  0  0  0  0  0  0  0
    6.8384   -7.9290   17.5282 N   0  0  0  0  0  0  0  0  0  0  0  0
    9.4126   -5.9853   18.4899 C   0  0  0  0  0  0  0  0  0  0  0  0
    4.2064  -10.3242   18.3302 C   0  0  0  0  0  0  0  0  0  0  0  0
    9.6599   -4.1551   16.4796 N   0  0  0  0  0  0  0  0  0  0  0  0
    7.0644   -6.4612   15.7375 N   0  0  0  0  0  0  0  0  0  0  0  0
    5.3549   -9.6322   18.3190 C   0  0  0  0  0  0  0  0  0  0  0  0
   10.3704   -4.9638   18.6510 C   0  0  0  0  0  0  0  0  0  0  0  0
    5.5935   -8.6419   17.4234 C   0  0  0  0  0  0  0  0  0  0  0  0
   13.0726   -4.6648   23.3394 O   0  0  0  0  0  0  0  0  0  0  0  0
    8.5955   -6.0705   17.3996 C   0  0  0  0  0  0  0  0  0  0  0  0
    4.6223   -8.3832   16.5030 C   0  0  0  0  0  0  0  0  0  0  0  0
   12.4690   -5.2624   19.9024 C   0  0  0  0  0  0  0  0  0  0  0  0
    3.2548   -9.9919   17.4189 C   0  0  0  0  0  0  0  0  0  0  0  0
   12.4767   -4.7393   22.1790 C   0  0  0  0  0  0  0  0  0  0  0  0
    7.8593   -5.3772   15.3569 N   0  0  0  0  0  0  0  0  0  0  0  0
    7.4412   -6.9038   16.9283 C   0  0  0  0  0  0  0  0  0  0  0  0
  1 21  4  0
  1 23  4  0
  2  5  1  0
  2 13  4  0
  2 16  4  0
  3  6  4  0
  3  7  4  0
  4 13  4  0
  4 19  4  0
  4 24  4  0
  6 23  4  0
  7 16  1  0
  7 21  4  0
  8 18  1  0
  9 20  4  0
  9 22  4  0
 10 17  1  0
 10 25  1  0
 11 16  4  0
 11 19  4  0
 12 15  4  0
 12 22  4  0
 14 24  4  0
 14 25  4  0
 15 17  4  0
 17 20  4  0
 18 23  1  0
 19 25  4  0
M  END
$$$$

 Created by Python create_sdf_string function

 25 28  0  0  0  0  0  0  0  0999 V2000
   13.1533   -5.2399   21.0682 C   0  0  0  0  0  0  0  0  0  0  0  0
   10.4729   -4.0295   17.6135 C   0  0  0  0  0  0  0  0  0  0  0  0
   10.4789   -4.3641   20.9564 C   0  0  0  0  0  0  0  0  0  0  0  0
    8.7421   -5.1412   16.3650 C   0  0  0  0  0  0  0  0  0  0  0  0
   11.4353   -2.9204   17.8044 C   0  0  0  0  0  0  0  0  0  0  0  0
   11.1529   -4.3028   22.1277 C   0  0  0  0  0  0  0  0  0  0  0  0
   11.1290   -4.8502   19.8052 C   0  0  0  0  0  0  0  0  0  0  0  0
   12.4329   -4.2159   24.4224 C   0  0  0  0  0  0  0  0  0  0  0  0
    3.4740   -9.0387   16.5022 C   0  0  0  0  0  0  0  0  0  0  0  0
    6.8384   -7.9290   17.5282 N   0  0  0  0  0  0  0  0  0  0  0  0
    9.4126   -5.9853   18.4899 C   0  0  0  0  0  0  0  0  0  0  0  0
    4.2064  -10.3242   18.3302 C   0  0  0  0  0  0  0  0  0  0  0  0
    9.6599   -4.1551   16.4796 N   0  0  0  0  0  0  0  0  0  0  0  0
    7.0644   -6.4612   15.7375 N   0  0  0  0  0  0  0  0  0  0  0  0
    5.3549   -9.6322   18.3190 C   0  0  0  0  0  0  0  0  0  0  0  0
   10.3704   -4.9638   18.6510 C   0  0  0  0  0  0  0  0  0  0  0  0
    5.5935   -8.6419   17.4234 C   0  0  0  0  0  0  0  0  0  0  0  0
   13.0726   -4.6648   23.3394 O   0  0  0  0  0  0  0  0  0  0  0  0
    8.5955   -6.0705   17.3996 C   0  0  0  0  0  0  0  0  0  0  0  0
    4.6223   -8.3832   16.5030 C   0  0  0  0  0  0  0  0  0  0  0  0
   12.4690   -5.2624   19.9024 C   0  0  0  0  0  0  0  0  0  0  0  0
    3.2548   -9.9919   17.4189 C   0  0  0  0  0  0  0  0  0  0  0  0
   12.4767   -4.7393   22.1790 C   0  0  0  0  0  0  0  0  0  0  0  0
    7.8593   -5.3772   15.3569 N   0  0  0  0  0  0  0  0  0  0  0  0
    7.4412   -6.9038   16.9283 C   0  0  0  0  0  0  0  0  0  0  0  0
  1 21  4  0
  1 23  4  0
  2  5  1  0
  2 13  4  0
  2 16  4  0
  3  6  4  0
  3  7  4  0
  4 13  4  0
  4 19  4  0
  4 24  4  0
  6 23  4  0
  7 16  1  0
  7 21  4  0
  8 18  1  0
  9 20  4  0
  9 22  4  0
 10 17  1  0
 10 25  1  0
 11 16  4  0
 11 19  4  0
 12 15  4  0
 12 22  4  0
 14 24  4  0
 14 25  4  0
 15 17  4  0
 17 20  4  0
 18 23  1  0
 19 25  4  0
M  END
$$$$

 Created by Python create_sdf_string function

 25 28  0  0  0  0  0  0  0  0999 V2000
   13.1533   -5.2399   21.0682 C   0  0  0  0  0  0  0  0  0  0  0  0
   10.4729   -4.0295   17.6135 C   0  0  0  0  0  0  0  0  0  0  0  0
   10.4789   -4.3641   20.9564 C   0  0  0  0  0  0  0  0  0  0  0  0
    8.7421   -5.1412   16.3650 C   0  0  0  0  0  0  0  0  0  0  0  0
   11.4353   -2.9204   17.8044 C   0  0  0  0  0  0  0  0  0  0  0  0
   11.1529   -4.3028   22.1277 C   0  0  0  0  0  0  0  0  0  0  0  0
   11.1290   -4.8502   19.8052 C   0  0  0  0  0  0  0  0  0  0  0  0
   12.4329   -4.2159   24.4224 C   0  0  0  0  0  0  0  0  0  0  0  0
    3.4740   -9.0387   16.5022 C   0  0  0  0  0  0  0  0  0  0  0  0
    6.8384   -7.9290   17.5282 N   0  0  0  0  0  0  0  0  0  0  0  0
    9.4126   -5.9853   18.4899 C   0  0  0  0  0  0  0  0  0  0  0  0
    4.2064  -10.3242   18.3302 C   0  0  0  0  0  0  0  0  0  0  0  0
    9.6599   -4.1551   16.4796 N   0  0  0  0  0  0  0  0  0  0  0  0
    7.0644   -6.4612   15.7375 N   0  0  0  0  0  0  0  0  0  0  0  0
    5.3549   -9.6322   18.3190 C   0  0  0  0  0  0  0  0  0  0  0  0
   10.3704   -4.9638   18.6510 C   0  0  0  0  0  0  0  0  0  0  0  0
    5.5935   -8.6419   17.4234 C   0  0  0  0  0  0  0  0  0  0  0  0
   13.0726   -4.6648   23.3394 O   0  0  0  0  0  0  0  0  0  0  0  0
    8.5955   -6.0705   17.3996 C   0  0  0  0  0  0  0  0  0  0  0  0
    4.6223   -8.3832   16.5030 C   0  0  0  0  0  0  0  0  0  0  0  0
   12.4690   -5.2624   19.9024 C   0  0  0  0  0  0  0  0  0  0  0  0
    3.2548   -9.9919   17.4189 C   0  0  0  0  0  0  0  0  0  0  0  0
   12.4767   -4.7393   22.1790 C   0  0  0  0  0  0  0  0  0  0  0  0
    7.8593   -5.3772   15.3569 N   0  0  0  0  0  0  0  0  0  0  0  0
    7.4412   -6.9038   16.9283 C   0  0  0  0  0  0  0  0  0  0  0  0
  1 21  4  0
  1 23  4  0
  2  5  1  0
  2 13  4  0
  2 16  4  0
  3  6  4  0
  3  7  4  0
  4 13  4  0
  4 19  4  0
  4 24  4  0
  6 23  4  0
  7 16  1  0
  7 21  4  0
  8 18  1  0
  9 20  4  0
  9 22  4  0
 10 17  1  0
 10 25  1  0
 11 16  4  0
 11 19  4  0
 12 15  4  0
 12 22  4  0
 14 24  4  0
 14 25  4  0
 15 17  4  0
 17 20  4  0
 18 23  1  0
 19 25  4  0
M  END
$$$$

 Created by Python create_sdf_string function

 25 28  0  0  0  0  0  0  0  0999 V2000
   13.1533   -5.2399   21.0682 C   0  0  0  0  0  0  0  0  0  0  0  0
   10.4729   -4.0295   17.6135 C   0  0  0  0  0  0  0  0  0  0  0  0
   10.4789   -4.3641   20.9564 C   0  0  0  0  0  0  0  0  0  0  0  0
    8.7421   -5.1412   16.3650 C   0  0  0  0  0  0  0  0  0  0  0  0
   11.4353   -2.9204   17.8044 C   0  0  0  0  0  0  0  0  0  0  0  0
   11.1529   -4.3028   22.1277 C   0  0  0  0  0  0  0  0  0  0  0  0
   11.1290   -4.8502   19.8052 C   0  0  0  0  0  0  0  0  0  0  0  0
   12.4329   -4.2159   24.4224 C   0  0  0  0  0  0  0  0  0  0  0  0
    3.4740   -9.0387   16.5022 C   0  0  0  0  0  0  0  0  0  0  0  0
    6.8384   -7.9290   17.5282 N   0  0  0  0  0  0  0  0  0  0  0  0
    9.4126   -5.9853   18.4899 C   0  0  0  0  0  0  0  0  0  0  0  0
    4.2064  -10.3242   18.3302 C   0  0  0  0  0  0  0  0  0  0  0  0
    9.6599   -4.1551   16.4796 N   0  0  0  0  0  0  0  0  0  0  0  0
    7.0644   -6.4612   15.7375 N   0  0  0  0  0  0  0  0  0  0  0  0
    5.3549   -9.6322   18.3190 C   0  0  0  0  0  0  0  0  0  0  0  0
   10.3704   -4.9638   18.6510 C   0  0  0  0  0  0  0  0  0  0  0  0
    5.5935   -8.6419   17.4234 C   0  0  0  0  0  0  0  0  0  0  0  0
   13.0726   -4.6648   23.3394 O   0  0  0  0  0  0  0  0  0  0  0  0
    8.5955   -6.0705   17.3996 C   0  0  0  0  0  0  0  0  0  0  0  0
    4.6223   -8.3832   16.5030 C   0  0  0  0  0  0  0  0  0  0  0  0
   12.4690   -5.2624   19.9024 C   0  0  0  0  0  0  0  0  0  0  0  0
    3.2548   -9.9919   17.4189 C   0  0  0  0  0  0  0  0  0  0  0  0
   12.4767   -4.7393   22.1790 C   0  0  0  0  0  0  0  0  0  0  0  0
    7.8593   -5.3772   15.3569 N   0  0  0  0  0  0  0  0  0  0  0  0
    7.4412   -6.9038   16.9283 C   0  0  0  0  0  0  0  0  0  0  0  0
  1 21  4  0
  1 23  4  0
  2  5  1  0
  2 13  4  0
  2 16  4  0
  3  6  4  0
  3  7  4  0
  4 13  4  0
  4 19  4  0
  4 24  4  0
  6 23  4  0
  7 16  1  0
  7 21  4  0
  8 18  1  0
  9 20  4  0
  9 22  4  0
 10 17  1  0
 10 25  1  0
 11 16  4  0
 11 19  4  0
 12 15  4  0
 12 22  4  0
 14 24  4  0
 14 25  4  0
 15 17  4  0
 17 20  4  0
 18 23  1  0
 19 25  4  0
M  END
$$$$

 Created by Python create_sdf_string function

 25 28  0  0  0  0  0  0  0  0999 V2000
   13.1533   -5.2399   21.0682 C   0  0  0  0  0  0  0  0  0  0  0  0
   10.4729   -4.0295   17.6135 C   0  0  0  0  0  0  0  0  0  0  0  0
   10.4789   -4.3641   20.9564 C   0  0  0  0  0  0  0  0  0  0  0  0
    8.7421   -5.1412   16.3650 C   0  0  0  0  0  0  0  0  0  0  0  0
   11.4353   -2.9204   17.8044 C   0  0  0  0  0  0  0  0  0  0  0  0
   11.1529   -4.3028   22.1277 C   0  0  0  0  0  0  0  0  0  0  0  0
   11.1290   -4.8502   19.8052 C   0  0  0  0  0  0  0  0  0  0  0  0
   12.4329   -4.2159   24.4224 C   0  0  0  0  0  0  0  0  0  0  0  0
    3.4740   -9.0387   16.5022 C   0  0  0  0  0  0  0  0  0  0  0  0
    6.8384   -7.9290   17.5282 N   0  0  0  0  0  0  0  0  0  0  0  0
    9.4126   -5.9853   18.4899 C   0  0  0  0  0  0  0  0  0  0  0  0
    4.2064  -10.3242   18.3302 C   0  0  0  0  0  0  0  0  0  0  0  0
    9.6599   -4.1551   16.4796 N   0  0  0  0  0  0  0  0  0  0  0  0
    7.0644   -6.4612   15.7375 N   0  0  0  0  0  0  0  0  0  0  0  0
    5.3549   -9.6322   18.3190 C   0  0  0  0  0  0  0  0  0  0  0  0
   10.3704   -4.9638   18.6510 C   0  0  0  0  0  0  0  0  0  0  0  0
    5.5935   -8.6419   17.4234 C   0  0  0  0  0  0  0  0  0  0  0  0
   13.0726   -4.6648   23.3394 O   0  0  0  0  0  0  0  0  0  0  0  0
    8.5955   -6.0705   17.3996 C   0  0  0  0  0  0  0  0  0  0  0  0
    4.6223   -8.3832   16.5030 C   0  0  0  0  0  0  0  0  0  0  0  0
   12.4690   -5.2624   19.9024 C   0  0  0  0  0  0  0  0  0  0  0  0
    3.2548   -9.9919   17.4189 C   0  0  0  0  0  0  0  0  0  0  0  0
   12.4767   -4.7393   22.1790 C   0  0  0  0  0  0  0  0  0  0  0  0
    7.8593   -5.3772   15.3569 N   0  0  0  0  0  0  0  0  0  0  0  0
    7.4412   -6.9038   16.9283 C   0  0  0  0  0  0  0  0  0  0  0  0
  1 21  4  0
  1 23  4  0
  2  5  1  0
  2 13  4  0
  2 16  4  0
  3  6  4  0
  3  7  4  0
  4 13  4  0
  4 19  4  0
  4 24  4  0
  6 23  4  0
  7 16  1  0
  7 21  4  0
  8 18  1  0
  9 20  4  0
  9 22  4  0
 10 17  1  0
 10 25  1  0
 11 16  4  0
 11 19  4  0
 12 15  4  0
 12 22  4  0
 14 24  4  0
 14 25  4  0
 15 17  4  0
 17 20  4  0
 18 23  1  0
 19 25  4  0
M  END
$$$$

 Created by Python create_sdf_string function

 25 28  0  0  0  0  0  0  0  0999 V2000
   13.1533   -5.2399   21.0682 C   0  0  0  0  0  0  0  0  0  0  0  0
   10.4729   -4.0295   17.6135 C   0  0  0  0  0  0  0  0  0  0  0  0
   10.4789   -4.3641   20.9564 C   0  0  0  0  0  0  0  0  0  0  0  0
    8.7421   -5.1412   16.3650 C   0  0  0  0  0  0  0  0  0  0  0  0
   11.4353   -2.9204   17.8044 C   0  0  0  0  0  0  0  0  0  0  0  0
   11.1529   -4.3028   22.1277 C   0  0  0  0  0  0  0  0  0  0  0  0
   11.1290   -4.8502   19.8052 C   0  0  0  0  0  0  0  0  0  0  0  0
   12.4329   -4.2159   24.4224 C   0  0  0  0  0  0  0  0  0  0  0  0
    3.4740   -9.0387   16.5022 C   0  0  0  0  0  0  0  0  0  0  0  0
    6.8384   -7.9290   17.5282 N   0  0  0  0  0  0  0  0  0  0  0  0
    9.4126   -5.9853   18.4899 C   0  0  0  0  0  0  0  0  0  0  0  0
    4.2064  -10.3242   18.3302 C   0  0  0  0  0  0  0  0  0  0  0  0
    9.6599   -4.1551   16.4796 N   0  0  0  0  0  0  0  0  0  0  0  0
    7.0644   -6.4612   15.7375 N   0  0  0  0  0  0  0  0  0  0  0  0
    5.3549   -9.6322   18.3190 C   0  0  0  0  0  0  0  0  0  0  0  0
   10.3704   -4.9638   18.6510 C   0  0  0  0  0  0  0  0  0  0  0  0
    5.5935   -8.6419   17.4234 C   0  0  0  0  0  0  0  0  0  0  0  0
   13.0726   -4.6648   23.3394 O   0  0  0  0  0  0  0  0  0  0  0  0
    8.5955   -6.0705   17.3996 C   0  0  0  0  0  0  0  0  0  0  0  0
    4.6223   -8.3832   16.5030 C   0  0  0  0  0  0  0  0  0  0  0  0
   12.4690   -5.2624   19.9024 C   0  0  0  0  0  0  0  0  0  0  0  0
    3.2548   -9.9919   17.4189 C   0  0  0  0  0  0  0  0  0  0  0  0
   12.4767   -4.7393   22.1790 C   0  0  0  0  0  0  0  0  0  0  0  0
    7.8593   -5.3772   15.3569 N   0  0  0  0  0  0  0  0  0  0  0  0
    7.4412   -6.9038   16.9283 C   0  0  0  0  0  0  0  0  0  0  0  0
  1 21  4  0
  1 23  4  0
  2  5  1  0
  2 13  4  0
  2 16  4  0
  3  6  4  0
  3  7  4  0
  4 13  4  0
  4 19  4  0
  4 24  4  0
  6 23  4  0
  7 16  1  0
  7 21  4  0
  8 18  1  0
  9 20  4  0
  9 22  4  0
 10 17  1  0
 10 25  1  0
 11 16  4  0
 11 19  4  0
 12 15  4  0
 12 22  4  0
 14 24  4  0
 14 25  4  0
 15 17  4  0
 17 20  4  0
 18 23  1  0
 19 25  4  0
M  END
$$$$

 Created by Python create_sdf_string function

 25 28  0  0  0  0  0  0  0  0999 V2000
   13.1533   -5.2399   21.0682 C   0  0  0  0  0  0  0  0  0  0  0  0
   10.4729   -4.0295   17.6135 C   0  0  0  0  0  0  0  0  0  0  0  0
   10.4789   -4.3641   20.9564 C   0  0  0  0  0  0  0  0  0  0  0  0
    8.7421   -5.1412   16.3650 C   0  0  0  0  0  0  0  0  0  0  0  0
   11.4353   -2.9204   17.8044 C   0  0  0  0  0  0  0  0  0  0  0  0
   11.1529   -4.3028   22.1277 C   0  0  0  0  0  0  0  0  0  0  0  0
   11.1290   -4.8502   19.8052 C   0  0  0  0  0  0  0  0  0  0  0  0
   12.4329   -4.2159   24.4224 C   0  0  0  0  0  0  0  0  0  0  0  0
    3.4740   -9.0387   16.5022 C   0  0  0  0  0  0  0  0  0  0  0  0
    6.8384   -7.9290   17.5282 N   0  0  0  0  0  0  0  0  0  0  0  0
    9.4126   -5.9853   18.4899 C   0  0  0  0  0  0  0  0  0  0  0  0
    4.2064  -10.3242   18.3302 C   0  0  0  0  0  0  0  0  0  0  0  0
    9.6599   -4.1551   16.4796 N   0  0  0  0  0  0  0  0  0  0  0  0
    7.0644   -6.4612   15.7375 N   0  0  0  0  0  0  0  0  0  0  0  0
    5.3549   -9.6322   18.3190 C   0  0  0  0  0  0  0  0  0  0  0  0
   10.3704   -4.9638   18.6510 C   0  0  0  0  0  0  0  0  0  0  0  0
    5.5935   -8.6419   17.4234 C   0  0  0  0  0  0  0  0  0  0  0  0
   13.0726   -4.6648   23.3394 O   0  0  0  0  0  0  0  0  0  0  0  0
    8.5955   -6.0705   17.3996 C   0  0  0  0  0  0  0  0  0  0  0  0
    4.6223   -8.3832   16.5030 C   0  0  0  0  0  0  0  0  0  0  0  0
   12.4690   -5.2624   19.9024 C   0  0  0  0  0  0  0  0  0  0  0  0
    3.2548   -9.9919   17.4189 C   0  0  0  0  0  0  0  0  0  0  0  0
   12.4767   -4.7393   22.1790 C   0  0  0  0  0  0  0  0  0  0  0  0
    7.8593   -5.3772   15.3569 N   0  0  0  0  0  0  0  0  0  0  0  0
    7.4412   -6.9038   16.9283 C   0  0  0  0  0  0  0  0  0  0  0  0
  1 21  4  0
  1 23  4  0
  2  5  1  0
  2 13  4  0
  2 16  4  0
  3  6  4  0
  3  7  4  0
  4 13  4  0
  4 19  4  0
  4 24  4  0
  6 23  4  0
  7 16  1  0
  7 21  4  0
  8 18  1  0
  9 20  4  0
  9 22  4  0
 10 17  1  0
 10 25  1  0
 11 16  4  0
 11 19  4  0
 12 15  4  0
 12 22  4  0
 14 24  4  0
 14 25  4  0
 15 17  4  0
 17 20  4  0
 18 23  1  0
 19 25  4  0
M  END
$$$$

 Created by Python create_sdf_string function

 25 28  0  0  0  0  0  0  0  0999 V2000
   13.1533   -5.2399   21.0682 C   0  0  0  0  0  0  0  0  0  0  0  0
   10.4729   -4.0295   17.6135 C   0  0  0  0  0  0  0  0  0  0  0  0
   10.4789   -4.3641   20.9564 C   0  0  0  0  0  0  0  0  0  0  0  0
    8.7421   -5.1412   16.3650 C   0  0  0  0  0  0  0  0  0  0  0  0
   11.4353   -2.9204   17.8044 C   0  0  0  0  0  0  0  0  0  0  0  0
   11.1529   -4.3028   22.1277 C   0  0  0  0  0  0  0  0  0  0  0  0
   11.1290   -4.8502   19.8052 C   0  0  0  0  0  0  0  0  0  0  0  0
   12.4329   -4.2159   24.4224 C   0  0  0  0  0  0  0  0  0  0  0  0
    3.4740   -9.0387   16.5022 C   0  0  0  0  0  0  0  0  0  0  0  0
    6.8384   -7.9290   17.5282 N   0  0  0  0  0  0  0  0  0  0  0  0
    9.4126   -5.9853   18.4899 C   0  0  0  0  0  0  0  0  0  0  0  0
    4.2064  -10.3242   18.3302 C   0  0  0  0  0  0  0  0  0  0  0  0
    9.6599   -4.1551   16.4796 N   0  0  0  0  0  0  0  0  0  0  0  0
    7.0644   -6.4612   15.7375 N   0  0  0  0  0  0  0  0  0  0  0  0
    5.3549   -9.6322   18.3190 C   0  0  0  0  0  0  0  0  0  0  0  0
   10.3704   -4.9638   18.6510 C   0  0  0  0  0  0  0  0  0  0  0  0
    5.5935   -8.6419   17.4234 C   0  0  0  0  0  0  0  0  0  0  0  0
   13.0726   -4.6648   23.3394 O   0  0  0  0  0  0  0  0  0  0  0  0
    8.5955   -6.0705   17.3996 C   0  0  0  0  0  0  0  0  0  0  0  0
    4.6223   -8.3832   16.5030 C   0  0  0  0  0  0  0  0  0  0  0  0
   12.4690   -5.2624   19.9024 C   0  0  0  0  0  0  0  0  0  0  0  0
    3.2548   -9.9919   17.4189 C   0  0  0  0  0  0  0  0  0  0  0  0
   12.4767   -4.7393   22.1790 C   0  0  0  0  0  0  0  0  0  0  0  0
    7.8593   -5.3772   15.3569 N   0  0  0  0  0  0  0  0  0  0  0  0
    7.4412   -6.9038   16.9283 C   0  0  0  0  0  0  0  0  0  0  0  0
  1 21  4  0
  1 23  4  0
  2  5  1  0
  2 13  4  0
  2 16  4  0
  3  6  4  0
  3  7  4  0
  4 13  4  0
  4 19  4  0
  4 24  4  0
  6 23  4  0
  7 16  1  0
  7 21  4  0
  8 18  1  0
  9 20  4  0
  9 22  4  0
 10 17  1  0
 10 25  1  0
 11 16  4  0
 11 19  4  0
 12 15  4  0
 12 22  4  0
 14 24  4  0
 14 25  4  0
 15 17  4  0
 17 20  4  0
 18 23  1  0
 19 25  4  0
M  END
$$$$

 Created by Python create_sdf_string function

 25 28  0  0  0  0  0  0  0  0999 V2000
   13.1533   -5.2399   21.0682 C   0  0  0  0  0  0  0  0  0  0  0  0
   10.4729   -4.0295   17.6135 C   0  0  0  0  0  0  0  0  0  0  0  0
   10.4789   -4.3641   20.9564 C   0  0  0  0  0  0  0  0  0  0  0  0
    8.7421   -5.1412   16.3650 C   0  0  0  0  0  0  0  0  0  0  0  0
   11.4353   -2.9204   17.8044 C   0  0  0  0  0  0  0  0  0  0  0  0
   11.1529   -4.3028   22.1277 C   0  0  0  0  0  0  0  0  0  0  0  0
   11.1290   -4.8502   19.8052 C   0  0  0  0  0  0  0  0  0  0  0  0
   12.4329   -4.2159   24.4224 C   0  0  0  0  0  0  0  0  0  0  0  0
    3.4740   -9.0387   16.5022 C   0  0  0  0  0  0  0  0  0  0  0  0
    6.8384   -7.9290   17.5282 N   0  0  0  0  0  0  0  0  0  0  0  0
    9.4126   -5.9853   18.4899 C   0  0  0  0  0  0  0  0  0  0  0  0
    4.2064  -10.3242   18.3302 C   0  0  0  0  0  0  0  0  0  0  0  0
    9.6599   -4.1551   16.4796 N   0  0  0  0  0  0  0  0  0  0  0  0
    7.0644   -6.4612   15.7375 N   0  0  0  0  0  0  0  0  0  0  0  0
    5.3549   -9.6322   18.3190 C   0  0  0  0  0  0  0  0  0  0  0  0
   10.3704   -4.9638   18.6510 C   0  0  0  0  0  0  0  0  0  0  0  0
    5.5935   -8.6419   17.4234 C   0  0  0  0  0  0  0  0  0  0  0  0
   13.0726   -4.6648   23.3394 O   0  0  0  0  0  0  0  0  0  0  0  0
    8.5955   -6.0705   17.3996 C   0  0  0  0  0  0  0  0  0  0  0  0
    4.6223   -8.3832   16.5030 C   0  0  0  0  0  0  0  0  0  0  0  0
   12.4690   -5.2624   19.9024 C   0  0  0  0  0  0  0  0  0  0  0  0
    3.2548   -9.9919   17.4189 C   0  0  0  0  0  0  0  0  0  0  0  0
   12.4767   -4.7393   22.1790 C   0  0  0  0  0  0  0  0  0  0  0  0
    7.8593   -5.3772   15.3569 N   0  0  0  0  0  0  0  0  0  0  0  0
    7.4412   -6.9038   16.9283 C   0  0  0  0  0  0  0  0  0  0  0  0
  1 21  4  0
  1 23  4  0
  2  5  1  0
  2 13  4  0
  2 16  4  0
  3  6  4  0
  3  7  4  0
  4 13  4  0
  4 19  4  0
  4 24  4  0
  6 23  4  0
  7 16  1  0
  7 21  4  0
  8 18  1  0
  9 20  4  0
  9 22  4  0
 10 17  1  0
 10 25  1  0
 11 16  4  0
 11 19  4  0
 12 15  4  0
 12 22  4  0
 14 24  4  0
 14 25  4  0
 15 17  4  0
 17 20  4  0
 18 23  1  0
 19 25  4  0
M  END
$$$$

 Created by Python create_sdf_string function

 25 28  0  0  0  0  0  0  0  0999 V2000
   13.1533   -5.2399   21.0682 C   0  0  0  0  0  0  0  0  0  0  0  0
   10.4729   -4.0295   17.6135 C   0  0  0  0  0  0  0  0  0  0  0  0
   10.4789   -4.3641   20.9564 C   0  0  0  0  0  0  0  0  0  0  0  0
    8.7421   -5.1412   16.3650 C   0  0  0  0  0  0  0  0  0  0  0  0
   11.4353   -2.9204   17.8044 C   0  0  0  0  0  0  0  0  0  0  0  0
   11.1529   -4.3028   22.1277 C   0  0  0  0  0  0  0  0  0  0  0  0
   11.1290   -4.8502   19.8052 C   0  0  0  0  0  0  0  0  0  0  0  0
   12.4329   -4.2159   24.4224 C   0  0  0  0  0  0  0  0  0  0  0  0
    3.4740   -9.0387   16.5022 C   0  0  0  0  0  0  0  0  0  0  0  0
    6.8384   -7.9290   17.5282 N   0  0  0  0  0  0  0  0  0  0  0  0
    9.4126   -5.9853   18.4899 C   0  0  0  0  0  0  0  0  0  0  0  0
    4.2064  -10.3242   18.3302 C   0  0  0  0  0  0  0  0  0  0  0  0
    9.6599   -4.1551   16.4796 N   0  0  0  0  0  0  0  0  0  0  0  0
    7.0644   -6.4612   15.7375 N   0  0  0  0  0  0  0  0  0  0  0  0
    5.3549   -9.6322   18.3190 C   0  0  0  0  0  0  0  0  0  0  0  0
   10.3704   -4.9638   18.6510 C   0  0  0  0  0  0  0  0  0  0  0  0
    5.5935   -8.6419   17.4234 C   0  0  0  0  0  0  0  0  0  0  0  0
   13.0726   -4.6648   23.3394 O   0  0  0  0  0  0  0  0  0  0  0  0
    8.5955   -6.0705   17.3996 C   0  0  0  0  0  0  0  0  0  0  0  0
    4.6223   -8.3832   16.5030 C   0  0  0  0  0  0  0  0  0  0  0  0
   12.4690   -5.2624   19.9024 C   0  0  0  0  0  0  0  0  0  0  0  0
    3.2548   -9.9919   17.4189 C   0  0  0  0  0  0  0  0  0  0  0  0
   12.4767   -4.7393   22.1790 C   0  0  0  0  0  0  0  0  0  0  0  0
    7.8593   -5.3772   15.3569 N   0  0  0  0  0  0  0  0  0  0  0  0
    7.4412   -6.9038   16.9283 C   0  0  0  0  0  0  0  0  0  0  0  0
  1 21  4  0
  1 23  4  0
  2  5  1  0
  2 13  4  0
  2 16  4  0
  3  6  4  0
  3  7  4  0
  4 13  4  0
  4 19  4  0
  4 24  4  0
  6 23  4  0
  7 16  1  0
  7 21  4  0
  8 18  1  0
  9 20  4  0
  9 22  4  0
 10 17  1  0
 10 25  1  0
 11 16  4  0
 11 19  4  0
 12 15  4  0
 12 22  4  0
 14 24  4  0
 14 25  4  0
 15 17  4  0
 17 20  4  0
 18 23  1  0
 19 25  4  0
M  END
$$$$

 Created by Python create_sdf_string function

 25 28  0  0  0  0  0  0  0  0999 V2000
   13.1533   -5.2399   21.0682 C   0  0  0  0  0  0  0  0  0  0  0  0
   10.4729   -4.0295   17.6135 C   0  0  0  0  0  0  0  0  0  0  0  0
   10.4789   -4.3641   20.9564 C   0  0  0  0  0  0  0  0  0  0  0  0
    8.7421   -5.1412   16.3650 C   0  0  0  0  0  0  0  0  0  0  0  0
   11.4353   -2.9204   17.8044 C   0  0  0  0  0  0  0  0  0  0  0  0
   11.1529   -4.3028   22.1277 C   0  0  0  0  0  0  0  0  0  0  0  0
   11.1290   -4.8502   19.8052 C   0  0  0  0  0  0  0  0  0  0  0  0
   12.4329   -4.2159   24.4224 C   0  0  0  0  0  0  0  0  0  0  0  0
    3.4740   -9.0387   16.5022 C   0  0  0  0  0  0  0  0  0  0  0  0
    6.8384   -7.9290   17.5282 N   0  0  0  0  0  0  0  0  0  0  0  0
    9.4126   -5.9853   18.4899 C   0  0  0  0  0  0  0  0  0  0  0  0
    4.2064  -10.3242   18.3302 C   0  0  0  0  0  0  0  0  0  0  0  0
    9.6599   -4.1551   16.4796 N   0  0  0  0  0  0  0  0  0  0  0  0
    7.0644   -6.4612   15.7375 N   0  0  0  0  0  0  0  0  0  0  0  0
    5.3549   -9.6322   18.3190 C   0  0  0  0  0  0  0  0  0  0  0  0
   10.3704   -4.9638   18.6510 C   0  0  0  0  0  0  0  0  0  0  0  0
    5.5935   -8.6419   17.4234 C   0  0  0  0  0  0  0  0  0  0  0  0
   13.0726   -4.6648   23.3394 O   0  0  0  0  0  0  0  0  0  0  0  0
    8.5955   -6.0705   17.3996 C   0  0  0  0  0  0  0  0  0  0  0  0
    4.6223   -8.3832   16.5030 C   0  0  0  0  0  0  0  0  0  0  0  0
   12.4690   -5.2624   19.9024 C   0  0  0  0  0  0  0  0  0  0  0  0
    3.2548   -9.9919   17.4189 C   0  0  0  0  0  0  0  0  0  0  0  0
   12.4767   -4.7393   22.1790 C   0  0  0  0  0  0  0  0  0  0  0  0
    7.8593   -5.3772   15.3569 N   0  0  0  0  0  0  0  0  0  0  0  0
    7.4412   -6.9038   16.9283 C   0  0  0  0  0  0  0  0  0  0  0  0
  1 21  4  0
  1 23  4  0
  2  5  1  0
  2 13  4  0
  2 16  4  0
  3  6  4  0
  3  7  4  0
  4 13  4  0
  4 19  4  0
  4 24  4  0
  6 23  4  0
  7 16  1  0
  7 21  4  0
  8 18  1  0
  9 20  4  0
  9 22  4  0
 10 17  1  0
 10 25  1  0
 11 16  4  0
 11 19  4  0
 12 15  4  0
 12 22  4  0
 14 24  4  0
 14 25  4  0
 15 17  4  0
 17 20  4  0
 18 23  1  0
 19 25  4  0
M  END
$$$$

 Created by Python create_sdf_string function

 25 28  0  0  0  0  0  0  0  0999 V2000
   13.1533   -5.2399   21.0682 C   0  0  0  0  0  0  0  0  0  0  0  0
   10.4729   -4.0295   17.6135 C   0  0  0  0  0  0  0  0  0  0  0  0
   10.4789   -4.3641   20.9564 C   0  0  0  0  0  0  0  0  0  0  0  0
    8.7421   -5.1412   16.3650 C   0  0  0  0  0  0  0  0  0  0  0  0
   11.4353   -2.9204   17.8044 C   0  0  0  0  0  0  0  0  0  0  0  0
   11.1529   -4.3028   22.1277 C   0  0  0  0  0  0  0  0  0  0  0  0
   11.1290   -4.8502   19.8052 C   0  0  0  0  0  0  0  0  0  0  0  0
   12.4329   -4.2159   24.4224 C   0  0  0  0  0  0  0  0  0  0  0  0
    3.4740   -9.0387   16.5022 C   0  0  0  0  0  0  0  0  0  0  0  0
    6.8384   -7.9290   17.5282 N   0  0  0  0  0  0  0  0  0  0  0  0
    9.4126   -5.9853   18.4899 C   0  0  0  0  0  0  0  0  0  0  0  0
    4.2064  -10.3242   18.3302 C   0  0  0  0  0  0  0  0  0  0  0  0
    9.6599   -4.1551   16.4796 N   0  0  0  0  0  0  0  0  0  0  0  0
    7.0644   -6.4612   15.7375 N   0  0  0  0  0  0  0  0  0  0  0  0
    5.3549   -9.6322   18.3190 C   0  0  0  0  0  0  0  0  0  0  0  0
   10.3704   -4.9638   18.6510 C   0  0  0  0  0  0  0  0  0  0  0  0
    5.5935   -8.6419   17.4234 C   0  0  0  0  0  0  0  0  0  0  0  0
   13.0726   -4.6648   23.3394 O   0  0  0  0  0  0  0  0  0  0  0  0
    8.5955   -6.0705   17.3996 C   0  0  0  0  0  0  0  0  0  0  0  0
    4.6223   -8.3832   16.5030 C   0  0  0  0  0  0  0  0  0  0  0  0
   12.4690   -5.2624   19.9024 C   0  0  0  0  0  0  0  0  0  0  0  0
    3.2548   -9.9919   17.4189 C   0  0  0  0  0  0  0  0  0  0  0  0
   12.4767   -4.7393   22.1790 C   0  0  0  0  0  0  0  0  0  0  0  0
    7.8593   -5.3772   15.3569 N   0  0  0  0  0  0  0  0  0  0  0  0
    7.4412   -6.9038   16.9283 C   0  0  0  0  0  0  0  0  0  0  0  0
  1 21  4  0
  1 23  4  0
  2  5  1  0
  2 13  4  0
  2 16  4  0
  3  6  4  0
  3  7  4  0
  4 13  4  0
  4 19  4  0
  4 24  4  0
  6 23  4  0
  7 16  1  0
  7 21  4  0
  8 18  1  0
  9 20  4  0
  9 22  4  0
 10 17  1  0
 10 25  1  0
 11 16  4  0
 11 19  4  0
 12 15  4  0
 12 22  4  0
 14 24  4  0
 14 25  4  0
 15 17  4  0
 17 20  4  0
 18 23  1  0
 19 25  4  0
M  END
$$$$

 Created by Python create_sdf_string function

 25 28  0  0  0  0  0  0  0  0999 V2000
   13.1533   -5.2399   21.0682 C   0  0  0  0  0  0  0  0  0  0  0  0
   10.4729   -4.0295   17.6135 C   0  0  0  0  0  0  0  0  0  0  0  0
   10.4789   -4.3641   20.9564 C   0  0  0  0  0  0  0  0  0  0  0  0
    8.7421   -5.1412   16.3650 C   0  0  0  0  0  0  0  0  0  0  0  0
   11.4353   -2.9204   17.8044 C   0  0  0  0  0  0  0  0  0  0  0  0
   11.1529   -4.3028   22.1277 C   0  0  0  0  0  0  0  0  0  0  0  0
   11.1290   -4.8502   19.8052 C   0  0  0  0  0  0  0  0  0  0  0  0
   12.4329   -4.2159   24.4224 C   0  0  0  0  0  0  0  0  0  0  0  0
    3.4740   -9.0387   16.5022 C   0  0  0  0  0  0  0  0  0  0  0  0
    6.8384   -7.9290   17.5282 N   0  0  0  0  0  0  0  0  0  0  0  0
    9.4126   -5.9853   18.4899 C   0  0  0  0  0  0  0  0  0  0  0  0
    4.2064  -10.3242   18.3302 C   0  0  0  0  0  0  0  0  0  0  0  0
    9.6599   -4.1551   16.4796 N   0  0  0  0  0  0  0  0  0  0  0  0
    7.0644   -6.4612   15.7375 N   0  0  0  0  0  0  0  0  0  0  0  0
    5.3549   -9.6322   18.3190 C   0  0  0  0  0  0  0  0  0  0  0  0
   10.3704   -4.9638   18.6510 C   0  0  0  0  0  0  0  0  0  0  0  0
    5.5935   -8.6419   17.4234 C   0  0  0  0  0  0  0  0  0  0  0  0
   13.0726   -4.6648   23.3394 O   0  0  0  0  0  0  0  0  0  0  0  0
    8.5955   -6.0705   17.3996 C   0  0  0  0  0  0  0  0  0  0  0  0
    4.6223   -8.3832   16.5030 C   0  0  0  0  0  0  0  0  0  0  0  0
   12.4690   -5.2624   19.9024 C   0  0  0  0  0  0  0  0  0  0  0  0
    3.2548   -9.9919   17.4189 C   0  0  0  0  0  0  0  0  0  0  0  0
   12.4767   -4.7393   22.1790 C   0  0  0  0  0  0  0  0  0  0  0  0
    7.8593   -5.3772   15.3569 N   0  0  0  0  0  0  0  0  0  0  0  0
    7.4412   -6.9038   16.9283 C   0  0  0  0  0  0  0  0  0  0  0  0
  1 21  4  0
  1 23  4  0
  2  5  1  0
  2 13  4  0
  2 16  4  0
  3  6  4  0
  3  7  4  0
  4 13  4  0
  4 19  4  0
  4 24  4  0
  6 23  4  0
  7 16  1  0
  7 21  4  0
  8 18  1  0
  9 20  4  0
  9 22  4  0
 10 17  1  0
 10 25  1  0
 11 16  4  0
 11 19  4  0
 12 15  4  0
 12 22  4  0
 14 24  4  0
 14 25  4  0
 15 17  4  0
 17 20  4  0
 18 23  1  0
 19 25  4  0
M  END
$$$$

 Created by Python create_sdf_string function

 25 28  0  0  0  0  0  0  0  0999 V2000
   13.1533   -5.2399   21.0682 C   0  0  0  0  0  0  0  0  0  0  0  0
   10.4729   -4.0295   17.6135 C   0  0  0  0  0  0  0  0  0  0  0  0
   10.4789   -4.3641   20.9564 C   0  0  0  0  0  0  0  0  0  0  0  0
    8.7421   -5.1412   16.3650 C   0  0  0  0  0  0  0  0  0  0  0  0
   11.4353   -2.9204   17.8044 C   0  0  0  0  0  0  0  0  0  0  0  0
   11.1529   -4.3028   22.1277 C   0  0  0  0  0  0  0  0  0  0  0  0
   11.1290   -4.8502   19.8052 C   0  0  0  0  0  0  0  0  0  0  0  0
   12.4329   -4.2159   24.4224 C   0  0  0  0  0  0  0  0  0  0  0  0
    3.4740   -9.0387   16.5022 C   0  0  0  0  0  0  0  0  0  0  0  0
    6.8384   -7.9290   17.5282 N   0  0  0  0  0  0  0  0  0  0  0  0
    9.4126   -5.9853   18.4899 C   0  0  0  0  0  0  0  0  0  0  0  0
    4.2064  -10.3242   18.3302 C   0  0  0  0  0  0  0  0  0  0  0  0
    9.6599   -4.1551   16.4796 N   0  0  0  0  0  0  0  0  0  0  0  0
    7.0644   -6.4612   15.7375 N   0  0  0  0  0  0  0  0  0  0  0  0
    5.3549   -9.6322   18.3190 C   0  0  0  0  0  0  0  0  0  0  0  0
   10.3704   -4.9638   18.6510 C   0  0  0  0  0  0  0  0  0  0  0  0
    5.5935   -8.6419   17.4234 C   0  0  0  0  0  0  0  0  0  0  0  0
   13.0726   -4.6648   23.3394 O   0  0  0  0  0  0  0  0  0  0  0  0
    8.5955   -6.0705   17.3996 C   0  0  0  0  0  0  0  0  0  0  0  0
    4.6223   -8.3832   16.5030 C   0  0  0  0  0  0  0  0  0  0  0  0
   12.4690   -5.2624   19.9024 C   0  0  0  0  0  0  0  0  0  0  0  0
    3.2548   -9.9919   17.4189 C   0  0  0  0  0  0  0  0  0  0  0  0
   12.4767   -4.7393   22.1790 C   0  0  0  0  0  0  0  0  0  0  0  0
    7.8593   -5.3772   15.3569 N   0  0  0  0  0  0  0  0  0  0  0  0
    7.4412   -6.9038   16.9283 C   0  0  0  0  0  0  0  0  0  0  0  0
  1 21  4  0
  1 23  4  0
  2  5  1  0
  2 13  4  0
  2 16  4  0
  3  6  4  0
  3  7  4  0
  4 13  4  0
  4 19  4  0
  4 24  4  0
  6 23  4  0
  7 16  1  0
  7 21  4  0
  8 18  1  0
  9 20  4  0
  9 22  4  0
 10 17  1  0
 10 25  1  0
 11 16  4  0
 11 19  4  0
 12 15  4  0
 12 22  4  0
 14 24  4  0
 14 25  4  0
 15 17  4  0
 17 20  4  0
 18 23  1  0
 19 25  4  0
M  END
$$$$

 Created by Python create_sdf_string function

 25 28  0  0  0  0  0  0  0  0999 V2000
   13.1533   -5.2399   21.0682 C   0  0  0  0  0  0  0  0  0  0  0  0
   10.4729   -4.0295   17.6135 C   0  0  0  0  0  0  0  0  0  0  0  0
   10.4789   -4.3641   20.9564 C   0  0  0  0  0  0  0  0  0  0  0  0
    8.7421   -5.1412   16.3650 C   0  0  0  0  0  0  0  0  0  0  0  0
   11.4353   -2.9204   17.8044 C   0  0  0  0  0  0  0  0  0  0  0  0
   11.1529   -4.3028   22.1277 C   0  0  0  0  0  0  0  0  0  0  0  0
   11.1290   -4.8502   19.8052 C   0  0  0  0  0  0  0  0  0  0  0  0
   12.4329   -4.2159   24.4224 C   0  0  0  0  0  0  0  0  0  0  0  0
    3.4740   -9.0387   16.5022 C   0  0  0  0  0  0  0  0  0  0  0  0
    6.8384   -7.9290   17.5282 N   0  0  0  0  0  0  0  0  0  0  0  0
    9.4126   -5.9853   18.4899 C   0  0  0  0  0  0  0  0  0  0  0  0
    4.2064  -10.3242   18.3302 C   0  0  0  0  0  0  0  0  0  0  0  0
    9.6599   -4.1551   16.4796 N   0  0  0  0  0  0  0  0  0  0  0  0
    7.0644   -6.4612   15.7375 N   0  0  0  0  0  0  0  0  0  0  0  0
    5.3549   -9.6322   18.3190 C   0  0  0  0  0  0  0  0  0  0  0  0
   10.3704   -4.9638   18.6510 C   0  0  0  0  0  0  0  0  0  0  0  0
    5.5935   -8.6419   17.4234 C   0  0  0  0  0  0  0  0  0  0  0  0
   13.0726   -4.6648   23.3394 O   0  0  0  0  0  0  0  0  0  0  0  0
    8.5955   -6.0705   17.3996 C   0  0  0  0  0  0  0  0  0  0  0  0
    4.6223   -8.3832   16.5030 C   0  0  0  0  0  0  0  0  0  0  0  0
   12.4690   -5.2624   19.9024 C   0  0  0  0  0  0  0  0  0  0  0  0
    3.2548   -9.9919   17.4189 C   0  0  0  0  0  0  0  0  0  0  0  0
   12.4767   -4.7393   22.1790 C   0  0  0  0  0  0  0  0  0  0  0  0
    7.8593   -5.3772   15.3569 N   0  0  0  0  0  0  0  0  0  0  0  0
    7.4412   -6.9038   16.9283 C   0  0  0  0  0  0  0  0  0  0  0  0
  1 21  4  0
  1 23  4  0
  2  5  1  0
  2 13  4  0
  2 16  4  0
  3  6  4  0
  3  7  4  0
  4 13  4  0
  4 19  4  0
  4 24  4  0
  6 23  4  0
  7 16  1  0
  7 21  4  0
  8 18  1  0
  9 20  4  0
  9 22  4  0
 10 17  1  0
 10 25  1  0
 11 16  4  0
 11 19  4  0
 12 15  4  0
 12 22  4  0
 14 24  4  0
 14 25  4  0
 15 17  4  0
 17 20  4  0
 18 23  1  0
 19 25  4  0
M  END
$$$$

 Created by Python create_sdf_string function

 25 28  0  0  0  0  0  0  0  0999 V2000
   13.1533   -5.2399   21.0682 C   0  0  0  0  0  0  0  0  0  0  0  0
   10.4729   -4.0295   17.6135 C   0  0  0  0  0  0  0  0  0  0  0  0
   10.4789   -4.3641   20.9564 C   0  0  0  0  0  0  0  0  0  0  0  0
    8.7421   -5.1412   16.3650 C   0  0  0  0  0  0  0  0  0  0  0  0
   11.4353   -2.9204   17.8044 C   0  0  0  0  0  0  0  0  0  0  0  0
   11.1529   -4.3028   22.1277 C   0  0  0  0  0  0  0  0  0  0  0  0
   11.1290   -4.8502   19.8052 C   0  0  0  0  0  0  0  0  0  0  0  0
   12.4329   -4.2159   24.4224 C   0  0  0  0  0  0  0  0  0  0  0  0
    3.4740   -9.0387   16.5022 C   0  0  0  0  0  0  0  0  0  0  0  0
    6.8384   -7.9290   17.5282 N   0  0  0  0  0  0  0  0  0  0  0  0
    9.4126   -5.9853   18.4899 C   0  0  0  0  0  0  0  0  0  0  0  0
    4.2064  -10.3242   18.3302 C   0  0  0  0  0  0  0  0  0  0  0  0
    9.6599   -4.1551   16.4796 N   0  0  0  0  0  0  0  0  0  0  0  0
    7.0644   -6.4612   15.7375 N   0  0  0  0  0  0  0  0  0  0  0  0
    5.3549   -9.6322   18.3190 C   0  0  0  0  0  0  0  0  0  0  0  0
   10.3704   -4.9638   18.6510 C   0  0  0  0  0  0  0  0  0  0  0  0
    5.5935   -8.6419   17.4234 C   0  0  0  0  0  0  0  0  0  0  0  0
   13.0726   -4.6648   23.3394 O   0  0  0  0  0  0  0  0  0  0  0  0
    8.5955   -6.0705   17.3996 C   0  0  0  0  0  0  0  0  0  0  0  0
    4.6223   -8.3832   16.5030 C   0  0  0  0  0  0  0  0  0  0  0  0
   12.4690   -5.2624   19.9024 C   0  0  0  0  0  0  0  0  0  0  0  0
    3.2548   -9.9919   17.4189 C   0  0  0  0  0  0  0  0  0  0  0  0
   12.4767   -4.7393   22.1790 C   0  0  0  0  0  0  0  0  0  0  0  0
    7.8593   -5.3772   15.3569 N   0  0  0  0  0  0  0  0  0  0  0  0
    7.4412   -6.9038   16.9283 C   0  0  0  0  0  0  0  0  0  0  0  0
  1 21  4  0
  1 23  4  0
  2  5  1  0
  2 13  4  0
  2 16  4  0
  3  6  4  0
  3  7  4  0
  4 13  4  0
  4 19  4  0
  4 24  4  0
  6 23  4  0
  7 16  1  0
  7 21  4  0
  8 18  1  0
  9 20  4  0
  9 22  4  0
 10 17  1  0
 10 25  1  0
 11 16  4  0
 11 19  4  0
 12 15  4  0
 12 22  4  0
 14 24  4  0
 14 25  4  0
 15 17  4  0
 17 20  4  0
 18 23  1  0
 19 25  4  0
M  END
$$$$

 Created by Python create_sdf_string function

 25 28  0  0  0  0  0  0  0  0999 V2000
   13.1533   -5.2399   21.0682 C   0  0  0  0  0  0  0  0  0  0  0  0
   10.4729   -4.0295   17.6135 C   0  0  0  0  0  0  0  0  0  0  0  0
   10.4789   -4.3641   20.9564 C   0  0  0  0  0  0  0  0  0  0  0  0
    8.7421   -5.1412   16.3650 C   0  0  0  0  0  0  0  0  0  0  0  0
   11.4353   -2.9204   17.8044 C   0  0  0  0  0  0  0  0  0  0  0  0
   11.1529   -4.3028   22.1277 C   0  0  0  0  0  0  0  0  0  0  0  0
   11.1290   -4.8502   19.8052 C   0  0  0  0  0  0  0  0  0  0  0  0
   12.4329   -4.2159   24.4224 C   0  0  0  0  0  0  0  0  0  0  0  0
    3.4740   -9.0387   16.5022 C   0  0  0  0  0  0  0  0  0  0  0  0
    6.8384   -7.9290   17.5282 N   0  0  0  0  0  0  0  0  0  0  0  0
    9.4126   -5.9853   18.4899 C   0  0  0  0  0  0  0  0  0  0  0  0
    4.2064  -10.3242   18.3302 C   0  0  0  0  0  0  0  0  0  0  0  0
    9.6599   -4.1551   16.4796 N   0  0  0  0  0  0  0  0  0  0  0  0
    7.0644   -6.4612   15.7375 N   0  0  0  0  0  0  0  0  0  0  0  0
    5.3549   -9.6322   18.3190 C   0  0  0  0  0  0  0  0  0  0  0  0
   10.3704   -4.9638   18.6510 C   0  0  0  0  0  0  0  0  0  0  0  0
    5.5935   -8.6419   17.4234 C   0  0  0  0  0  0  0  0  0  0  0  0
   13.0726   -4.6648   23.3394 O   0  0  0  0  0  0  0  0  0  0  0  0
    8.5955   -6.0705   17.3996 C   0  0  0  0  0  0  0  0  0  0  0  0
    4.6223   -8.3832   16.5030 C   0  0  0  0  0  0  0  0  0  0  0  0
   12.4690   -5.2624   19.9024 C   0  0  0  0  0  0  0  0  0  0  0  0
    3.2548   -9.9919   17.4189 C   0  0  0  0  0  0  0  0  0  0  0  0
   12.4767   -4.7393   22.1790 C   0  0  0  0  0  0  0  0  0  0  0  0
    7.8593   -5.3772   15.3569 N   0  0  0  0  0  0  0  0  0  0  0  0
    7.4412   -6.9038   16.9283 C   0  0  0  0  0  0  0  0  0  0  0  0
  1 21  4  0
  1 23  4  0
  2  5  1  0
  2 13  4  0
  2 16  4  0
  3  6  4  0
  3  7  4  0
  4 13  4  0
  4 19  4  0
  4 24  4  0
  6 23  4  0
  7 16  1  0
  7 21  4  0
  8 18  1  0
  9 20  4  0
  9 22  4  0
 10 17  1  0
 10 25  1  0
 11 16  4  0
 11 19  4  0
 12 15  4  0
 12 22  4  0
 14 24  4  0
 14 25  4  0
 15 17  4  0
 17 20  4  0
 18 23  1  0
 19 25  4  0
M  END
$$$$

 Created by Python create_sdf_string function

 25 28  0  0  0  0  0  0  0  0999 V2000
   13.1533   -5.2399   21.0682 C   0  0  0  0  0  0  0  0  0  0  0  0
   10.4729   -4.0295   17.6135 C   0  0  0  0  0  0  0  0  0  0  0  0
   10.4789   -4.3641   20.9564 C   0  0  0  0  0  0  0  0  0  0  0  0
    8.7421   -5.1412   16.3650 C   0  0  0  0  0  0  0  0  0  0  0  0
   11.4353   -2.9204   17.8044 C   0  0  0  0  0  0  0  0  0  0  0  0
   11.1529   -4.3028   22.1277 C   0  0  0  0  0  0  0  0  0  0  0  0
   11.1290   -4.8502   19.8052 C   0  0  0  0  0  0  0  0  0  0  0  0
   12.4329   -4.2159   24.4224 C   0  0  0  0  0  0  0  0  0  0  0  0
    3.4740   -9.0387   16.5022 C   0  0  0  0  0  0  0  0  0  0  0  0
    6.8384   -7.9290   17.5282 N   0  0  0  0  0  0  0  0  0  0  0  0
    9.4126   -5.9853   18.4899 C   0  0  0  0  0  0  0  0  0  0  0  0
    4.2064  -10.3242   18.3302 C   0  0  0  0  0  0  0  0  0  0  0  0
    9.6599   -4.1551   16.4796 N   0  0  0  0  0  0  0  0  0  0  0  0
    7.0644   -6.4612   15.7375 N   0  0  0  0  0  0  0  0  0  0  0  0
    5.3549   -9.6322   18.3190 C   0  0  0  0  0  0  0  0  0  0  0  0
   10.3704   -4.9638   18.6510 C   0  0  0  0  0  0  0  0  0  0  0  0
    5.5935   -8.6419   17.4234 C   0  0  0  0  0  0  0  0  0  0  0  0
   13.0726   -4.6648   23.3394 O   0  0  0  0  0  0  0  0  0  0  0  0
    8.5955   -6.0705   17.3996 C   0  0  0  0  0  0  0  0  0  0  0  0
    4.6223   -8.3832   16.5030 C   0  0  0  0  0  0  0  0  0  0  0  0
   12.4690   -5.2624   19.9024 C   0  0  0  0  0  0  0  0  0  0  0  0
    3.2548   -9.9919   17.4189 C   0  0  0  0  0  0  0  0  0  0  0  0
   12.4767   -4.7393   22.1790 C   0  0  0  0  0  0  0  0  0  0  0  0
    7.8593   -5.3772   15.3569 N   0  0  0  0  0  0  0  0  0  0  0  0
    7.4412   -6.9038   16.9283 C   0  0  0  0  0  0  0  0  0  0  0  0
  1 21  4  0
  1 23  4  0
  2  5  1  0
  2 13  4  0
  2 16  4  0
  3  6  4  0
  3  7  4  0
  4 13  4  0
  4 19  4  0
  4 24  4  0
  6 23  4  0
  7 16  1  0
  7 21  4  0
  8 18  1  0
  9 20  4  0
  9 22  4  0
 10 17  1  0
 10 25  1  0
 11 16  4  0
 11 19  4  0
 12 15  4  0
 12 22  4  0
 14 24  4  0
 14 25  4  0
 15 17  4  0
 17 20  4  0
 18 23  1  0
 19 25  4  0
M  END
$$$$

 Created by Python create_sdf_string function

 25 28  0  0  0  0  0  0  0  0999 V2000
   13.1533   -5.2399   21.0682 C   0  0  0  0  0  0  0  0  0  0  0  0
   10.4729   -4.0295   17.6135 C   0  0  0  0  0  0  0  0  0  0  0  0
   10.4789   -4.3641   20.9564 C   0  0  0  0  0  0  0  0  0  0  0  0
    8.7421   -5.1412   16.3650 C   0  0  0  0  0  0  0  0  0  0  0  0
   11.4353   -2.9204   17.8044 C   0  0  0  0  0  0  0  0  0  0  0  0
   11.1529   -4.3028   22.1277 C   0  0  0  0  0  0  0  0  0  0  0  0
   11.1290   -4.8502   19.8052 C   0  0  0  0  0  0  0  0  0  0  0  0
   12.4329   -4.2159   24.4224 C   0  0  0  0  0  0  0  0  0  0  0  0
    3.4740   -9.0387   16.5022 C   0  0  0  0  0  0  0  0  0  0  0  0
    6.8384   -7.9290   17.5282 N   0  0  0  0  0  0  0  0  0  0  0  0
    9.4126   -5.9853   18.4899 C   0  0  0  0  0  0  0  0  0  0  0  0
    4.2064  -10.3242   18.3302 C   0  0  0  0  0  0  0  0  0  0  0  0
    9.6599   -4.1551   16.4796 N   0  0  0  0  0  0  0  0  0  0  0  0
    7.0644   -6.4612   15.7375 N   0  0  0  0  0  0  0  0  0  0  0  0
    5.3549   -9.6322   18.3190 C   0  0  0  0  0  0  0  0  0  0  0  0
   10.3704   -4.9638   18.6510 C   0  0  0  0  0  0  0  0  0  0  0  0
    5.5935   -8.6419   17.4234 C   0  0  0  0  0  0  0  0  0  0  0  0
   13.0726   -4.6648   23.3394 O   0  0  0  0  0  0  0  0  0  0  0  0
    8.5955   -6.0705   17.3996 C   0  0  0  0  0  0  0  0  0  0  0  0
    4.6223   -8.3832   16.5030 C   0  0  0  0  0  0  0  0  0  0  0  0
   12.4690   -5.2624   19.9024 C   0  0  0  0  0  0  0  0  0  0  0  0
    3.2548   -9.9919   17.4189 C   0  0  0  0  0  0  0  0  0  0  0  0
   12.4767   -4.7393   22.1790 C   0  0  0  0  0  0  0  0  0  0  0  0
    7.8593   -5.3772   15.3569 N   0  0  0  0  0  0  0  0  0  0  0  0
    7.4412   -6.9038   16.9283 C   0  0  0  0  0  0  0  0  0  0  0  0
  1 21  4  0
  1 23  4  0
  2  5  1  0
  2 13  4  0
  2 16  4  0
  3  6  4  0
  3  7  4  0
  4 13  4  0
  4 19  4  0
  4 24  4  0
  6 23  4  0
  7 16  1  0
  7 21  4  0
  8 18  1  0
  9 20  4  0
  9 22  4  0
 10 17  1  0
 10 25  1  0
 11 16  4  0
 11 19  4  0
 12 15  4  0
 12 22  4  0
 14 24  4  0
 14 25  4  0
 15 17  4  0
 17 20  4  0
 18 23  1  0
 19 25  4  0
M  END
$$$$

 Created by Python create_sdf_string function

 25 28  0  0  0  0  0  0  0  0999 V2000
   13.1533   -5.2399   21.0682 C   0  0  0  0  0  0  0  0  0  0  0  0
   10.4729   -4.0295   17.6135 C   0  0  0  0  0  0  0  0  0  0  0  0
   10.4789   -4.3641   20.9564 C   0  0  0  0  0  0  0  0  0  0  0  0
    8.7421   -5.1412   16.3650 C   0  0  0  0  0  0  0  0  0  0  0  0
   11.4353   -2.9204   17.8044 C   0  0  0  0  0  0  0  0  0  0  0  0
   11.1529   -4.3028   22.1277 C   0  0  0  0  0  0  0  0  0  0  0  0
   11.1290   -4.8502   19.8052 C   0  0  0  0  0  0  0  0  0  0  0  0
   12.4329   -4.2159   24.4224 C   0  0  0  0  0  0  0  0  0  0  0  0
    3.4740   -9.0387   16.5022 C   0  0  0  0  0  0  0  0  0  0  0  0
    6.8384   -7.9290   17.5282 N   0  0  0  0  0  0  0  0  0  0  0  0
    9.4126   -5.9853   18.4899 C   0  0  0  0  0  0  0  0  0  0  0  0
    4.2064  -10.3242   18.3302 C   0  0  0  0  0  0  0  0  0  0  0  0
    9.6599   -4.1551   16.4796 N   0  0  0  0  0  0  0  0  0  0  0  0
    7.0644   -6.4612   15.7375 N   0  0  0  0  0  0  0  0  0  0  0  0
    5.3549   -9.6322   18.3190 C   0  0  0  0  0  0  0  0  0  0  0  0
   10.3704   -4.9638   18.6510 C   0  0  0  0  0  0  0  0  0  0  0  0
    5.5935   -8.6419   17.4234 C   0  0  0  0  0  0  0  0  0  0  0  0
   13.0726   -4.6648   23.3394 O   0  0  0  0  0  0  0  0  0  0  0  0
    8.5955   -6.0705   17.3996 C   0  0  0  0  0  0  0  0  0  0  0  0
    4.6223   -8.3832   16.5030 C   0  0  0  0  0  0  0  0  0  0  0  0
   12.4690   -5.2624   19.9024 C   0  0  0  0  0  0  0  0  0  0  0  0
    3.2548   -9.9919   17.4189 C   0  0  0  0  0  0  0  0  0  0  0  0
   12.4767   -4.7393   22.1790 C   0  0  0  0  0  0  0  0  0  0  0  0
    7.8593   -5.3772   15.3569 N   0  0  0  0  0  0  0  0  0  0  0  0
    7.4412   -6.9038   16.9283 C   0  0  0  0  0  0  0  0  0  0  0  0
  1 21  4  0
  1 23  4  0
  2  5  1  0
  2 13  4  0
  2 16  4  0
  3  6  4  0
  3  7  4  0
  4 13  4  0
  4 19  4  0
  4 24  4  0
  6 23  4  0
  7 16  1  0
  7 21  4  0
  8 18  1  0
  9 20  4  0
  9 22  4  0
 10 17  1  0
 10 25  1  0
 11 16  4  0
 11 19  4  0
 12 15  4  0
 12 22  4  0
 14 24  4  0
 14 25  4  0
 15 17  4  0
 17 20  4  0
 18 23  1  0
 19 25  4  0
M  END
$$$$

 Created by Python create_sdf_string function

 25 28  0  0  0  0  0  0  0  0999 V2000
   13.1533   -5.2399   21.0682 C   0  0  0  0  0  0  0  0  0  0  0  0
   10.4729   -4.0295   17.6135 C   0  0  0  0  0  0  0  0  0  0  0  0
   10.4789   -4.3641   20.9564 C   0  0  0  0  0  0  0  0  0  0  0  0
    8.7421   -5.1412   16.3650 C   0  0  0  0  0  0  0  0  0  0  0  0
   11.4353   -2.9204   17.8044 C   0  0  0  0  0  0  0  0  0  0  0  0
   11.1529   -4.3028   22.1277 C   0  0  0  0  0  0  0  0  0  0  0  0
   11.1290   -4.8502   19.8052 C   0  0  0  0  0  0  0  0  0  0  0  0
   12.4329   -4.2159   24.4224 C   0  0  0  0  0  0  0  0  0  0  0  0
    3.4740   -9.0387   16.5022 C   0  0  0  0  0  0  0  0  0  0  0  0
    6.8384   -7.9290   17.5282 N   0  0  0  0  0  0  0  0  0  0  0  0
    9.4126   -5.9853   18.4899 C   0  0  0  0  0  0  0  0  0  0  0  0
    4.2064  -10.3242   18.3302 C   0  0  0  0  0  0  0  0  0  0  0  0
    9.6599   -4.1551   16.4796 N   0  0  0  0  0  0  0  0  0  0  0  0
    7.0644   -6.4612   15.7375 N   0  0  0  0  0  0  0  0  0  0  0  0
    5.3549   -9.6322   18.3190 C   0  0  0  0  0  0  0  0  0  0  0  0
   10.3704   -4.9638   18.6510 C   0  0  0  0  0  0  0  0  0  0  0  0
    5.5935   -8.6419   17.4234 C   0  0  0  0  0  0  0  0  0  0  0  0
   13.0726   -4.6648   23.3394 O   0  0  0  0  0  0  0  0  0  0  0  0
    8.5955   -6.0705   17.3996 C   0  0  0  0  0  0  0  0  0  0  0  0
    4.6223   -8.3832   16.5030 C   0  0  0  0  0  0  0  0  0  0  0  0
   12.4690   -5.2624   19.9024 C   0  0  0  0  0  0  0  0  0  0  0  0
    3.2548   -9.9919   17.4189 C   0  0  0  0  0  0  0  0  0  0  0  0
   12.4767   -4.7393   22.1790 C   0  0  0  0  0  0  0  0  0  0  0  0
    7.8593   -5.3772   15.3569 N   0  0  0  0  0  0  0  0  0  0  0  0
    7.4412   -6.9038   16.9283 C   0  0  0  0  0  0  0  0  0  0  0  0
  1 21  4  0
  1 23  4  0
  2  5  1  0
  2 13  4  0
  2 16  4  0
  3  6  4  0
  3  7  4  0
  4 13  4  0
  4 19  4  0
  4 24  4  0
  6 23  4  0
  7 16  1  0
  7 21  4  0
  8 18  1  0
  9 20  4  0
  9 22  4  0
 10 17  1  0
 10 25  1  0
 11 16  4  0
 11 19  4  0
 12 15  4  0
 12 22  4  0
 14 24  4  0
 14 25  4  0
 15 17  4  0
 17 20  4  0
 18 23  1  0
 19 25  4  0
M  END
$$$$

 Created by Python create_sdf_string function

 25 28  0  0  0  0  0  0  0  0999 V2000
   13.1533   -5.2399   21.0682 C   0  0  0  0  0  0  0  0  0  0  0  0
   10.4729   -4.0295   17.6135 C   0  0  0  0  0  0  0  0  0  0  0  0
   10.4789   -4.3641   20.9564 C   0  0  0  0  0  0  0  0  0  0  0  0
    8.7421   -5.1412   16.3650 C   0  0  0  0  0  0  0  0  0  0  0  0
   11.4353   -2.9204   17.8044 C   0  0  0  0  0  0  0  0  0  0  0  0
   11.1529   -4.3028   22.1277 C   0  0  0  0  0  0  0  0  0  0  0  0
   11.1290   -4.8502   19.8052 C   0  0  0  0  0  0  0  0  0  0  0  0
   12.4329   -4.2159   24.4224 C   0  0  0  0  0  0  0  0  0  0  0  0
    3.4740   -9.0387   16.5022 C   0  0  0  0  0  0  0  0  0  0  0  0
    6.8384   -7.9290   17.5282 N   0  0  0  0  0  0  0  0  0  0  0  0
    9.4126   -5.9853   18.4899 C   0  0  0  0  0  0  0  0  0  0  0  0
    4.2064  -10.3242   18.3302 C   0  0  0  0  0  0  0  0  0  0  0  0
    9.6599   -4.1551   16.4796 N   0  0  0  0  0  0  0  0  0  0  0  0
    7.0644   -6.4612   15.7375 N   0  0  0  0  0  0  0  0  0  0  0  0
    5.3549   -9.6322   18.3190 C   0  0  0  0  0  0  0  0  0  0  0  0
   10.3704   -4.9638   18.6510 C   0  0  0  0  0  0  0  0  0  0  0  0
    5.5935   -8.6419   17.4234 C   0  0  0  0  0  0  0  0  0  0  0  0
   13.0726   -4.6648   23.3394 O   0  0  0  0  0  0  0  0  0  0  0  0
    8.5955   -6.0705   17.3996 C   0  0  0  0  0  0  0  0  0  0  0  0
    4.6223   -8.3832   16.5030 C   0  0  0  0  0  0  0  0  0  0  0  0
   12.4690   -5.2624   19.9024 C   0  0  0  0  0  0  0  0  0  0  0  0
    3.2548   -9.9919   17.4189 C   0  0  0  0  0  0  0  0  0  0  0  0
   12.4767   -4.7393   22.1790 C   0  0  0  0  0  0  0  0  0  0  0  0
    7.8593   -5.3772   15.3569 N   0  0  0  0  0  0  0  0  0  0  0  0
    7.4412   -6.9038   16.9283 C   0  0  0  0  0  0  0  0  0  0  0  0
  1 21  4  0
  1 23  4  0
  2  5  1  0
  2 13  4  0
  2 16  4  0
  3  6  4  0
  3  7  4  0
  4 13  4  0
  4 19  4  0
  4 24  4  0
  6 23  4  0
  7 16  1  0
  7 21  4  0
  8 18  1  0
  9 20  4  0
  9 22  4  0
 10 17  1  0
 10 25  1  0
 11 16  4  0
 11 19  4  0
 12 15  4  0
 12 22  4  0
 14 24  4  0
 14 25  4  0
 15 17  4  0
 17 20  4  0
 18 23  1  0
 19 25  4  0
M  END
$$$$

 Created by Python create_sdf_string function

 25 28  0  0  0  0  0  0  0  0999 V2000
   13.1533   -5.2399   21.0682 C   0  0  0  0  0  0  0  0  0  0  0  0
   10.4729   -4.0295   17.6135 C   0  0  0  0  0  0  0  0  0  0  0  0
   10.4789   -4.3641   20.9564 C   0  0  0  0  0  0  0  0  0  0  0  0
    8.7421   -5.1412   16.3650 C   0  0  0  0  0  0  0  0  0  0  0  0
   11.4353   -2.9204   17.8044 C   0  0  0  0  0  0  0  0  0  0  0  0
   11.1529   -4.3028   22.1277 C   0  0  0  0  0  0  0  0  0  0  0  0
   11.1290   -4.8502   19.8052 C   0  0  0  0  0  0  0  0  0  0  0  0
   12.4329   -4.2159   24.4224 C   0  0  0  0  0  0  0  0  0  0  0  0
    3.4740   -9.0387   16.5022 C   0  0  0  0  0  0  0  0  0  0  0  0
    6.8384   -7.9290   17.5282 N   0  0  0  0  0  0  0  0  0  0  0  0
    9.4126   -5.9853   18.4899 C   0  0  0  0  0  0  0  0  0  0  0  0
    4.2064  -10.3242   18.3302 C   0  0  0  0  0  0  0  0  0  0  0  0
    9.6599   -4.1551   16.4796 N   0  0  0  0  0  0  0  0  0  0  0  0
    7.0644   -6.4612   15.7375 N   0  0  0  0  0  0  0  0  0  0  0  0
    5.3549   -9.6322   18.3190 C   0  0  0  0  0  0  0  0  0  0  0  0
   10.3704   -4.9638   18.6510 C   0  0  0  0  0  0  0  0  0  0  0  0
    5.5935   -8.6419   17.4234 C   0  0  0  0  0  0  0  0  0  0  0  0
   13.0726   -4.6648   23.3394 O   0  0  0  0  0  0  0  0  0  0  0  0
    8.5955   -6.0705   17.3996 C   0  0  0  0  0  0  0  0  0  0  0  0
    4.6223   -8.3832   16.5030 C   0  0  0  0  0  0  0  0  0  0  0  0
   12.4690   -5.2624   19.9024 C   0  0  0  0  0  0  0  0  0  0  0  0
    3.2548   -9.9919   17.4189 C   0  0  0  0  0  0  0  0  0  0  0  0
   12.4767   -4.7393   22.1790 C   0  0  0  0  0  0  0  0  0  0  0  0
    7.8593   -5.3772   15.3569 N   0  0  0  0  0  0  0  0  0  0  0  0
    7.4412   -6.9038   16.9283 C   0  0  0  0  0  0  0  0  0  0  0  0
  1 21  4  0
  1 23  4  0
  2  5  1  0
  2 13  4  0
  2 16  4  0
  3  6  4  0
  3  7  4  0
  4 13  4  0
  4 19  4  0
  4 24  4  0
  6 23  4  0
  7 16  1  0
  7 21  4  0
  8 18  1  0
  9 20  4  0
  9 22  4  0
 10 17  1  0
 10 25  1  0
 11 16  4  0
 11 19  4  0
 12 15  4  0
 12 22  4  0
 14 24  4  0
 14 25  4  0
 15 17  4  0
 17 20  4  0
 18 23  1  0
 19 25  4  0
M  END
$$$$

 Created by Python create_sdf_string function

 25 28  0  0  0  0  0  0  0  0999 V2000
   13.1533   -5.2399   21.0682 C   0  0  0  0  0  0  0  0  0  0  0  0
   10.4729   -4.0295   17.6135 C   0  0  0  0  0  0  0  0  0  0  0  0
   10.4789   -4.3641   20.9564 C   0  0  0  0  0  0  0  0  0  0  0  0
    8.7421   -5.1412   16.3650 C   0  0  0  0  0  0  0  0  0  0  0  0
   11.4353   -2.9204   17.8044 C   0  0  0  0  0  0  0  0  0  0  0  0
   11.1529   -4.3028   22.1277 C   0  0  0  0  0  0  0  0  0  0  0  0
   11.1290   -4.8502   19.8052 C   0  0  0  0  0  0  0  0  0  0  0  0
   12.4329   -4.2159   24.4224 C   0  0  0  0  0  0  0  0  0  0  0  0
    3.4740   -9.0387   16.5022 C   0  0  0  0  0  0  0  0  0  0  0  0
    6.8384   -7.9290   17.5282 N   0  0  0  0  0  0  0  0  0  0  0  0
    9.4126   -5.9853   18.4899 C   0  0  0  0  0  0  0  0  0  0  0  0
    4.2064  -10.3242   18.3302 C   0  0  0  0  0  0  0  0  0  0  0  0
    9.6599   -4.1551   16.4796 N   0  0  0  0  0  0  0  0  0  0  0  0
    7.0644   -6.4612   15.7375 N   0  0  0  0  0  0  0  0  0  0  0  0
    5.3549   -9.6322   18.3190 C   0  0  0  0  0  0  0  0  0  0  0  0
   10.3704   -4.9638   18.6510 C   0  0  0  0  0  0  0  0  0  0  0  0
    5.5935   -8.6419   17.4234 C   0  0  0  0  0  0  0  0  0  0  0  0
   13.0726   -4.6648   23.3394 O   0  0  0  0  0  0  0  0  0  0  0  0
    8.5955   -6.0705   17.3996 C   0  0  0  0  0  0  0  0  0  0  0  0
    4.6223   -8.3832   16.5030 C   0  0  0  0  0  0  0  0  0  0  0  0
   12.4690   -5.2624   19.9024 C   0  0  0  0  0  0  0  0  0  0  0  0
    3.2548   -9.9919   17.4189 C   0  0  0  0  0  0  0  0  0  0  0  0
   12.4767   -4.7393   22.1790 C   0  0  0  0  0  0  0  0  0  0  0  0
    7.8593   -5.3772   15.3569 N   0  0  0  0  0  0  0  0  0  0  0  0
    7.4412   -6.9038   16.9283 C   0  0  0  0  0  0  0  0  0  0  0  0
  1 21  4  0
  1 23  4  0
  2  5  1  0
  2 13  4  0
  2 16  4  0
  3  6  4  0
  3  7  4  0
  4 13  4  0
  4 19  4  0
  4 24  4  0
  6 23  4  0
  7 16  1  0
  7 21  4  0
  8 18  1  0
  9 20  4  0
  9 22  4  0
 10 17  1  0
 10 25  1  0
 11 16  4  0
 11 19  4  0
 12 15  4  0
 12 22  4  0
 14 24  4  0
 14 25  4  0
 15 17  4  0
 17 20  4  0
 18 23  1  0
 19 25  4  0
M  END
$$$$

 Created by Python create_sdf_string function

 25 28  0  0  0  0  0  0  0  0999 V2000
   13.1533   -5.2399   21.0682 C   0  0  0  0  0  0  0  0  0  0  0  0
   10.4729   -4.0295   17.6135 C   0  0  0  0  0  0  0  0  0  0  0  0
   10.4789   -4.3641   20.9564 C   0  0  0  0  0  0  0  0  0  0  0  0
    8.7421   -5.1412   16.3650 C   0  0  0  0  0  0  0  0  0  0  0  0
   11.4353   -2.9204   17.8044 C   0  0  0  0  0  0  0  0  0  0  0  0
   11.1529   -4.3028   22.1277 C   0  0  0  0  0  0  0  0  0  0  0  0
   11.1290   -4.8502   19.8052 C   0  0  0  0  0  0  0  0  0  0  0  0
   12.4329   -4.2159   24.4224 C   0  0  0  0  0  0  0  0  0  0  0  0
    3.4740   -9.0387   16.5022 C   0  0  0  0  0  0  0  0  0  0  0  0
    6.8384   -7.9290   17.5282 N   0  0  0  0  0  0  0  0  0  0  0  0
    9.4126   -5.9853   18.4899 C   0  0  0  0  0  0  0  0  0  0  0  0
    4.2064  -10.3242   18.3302 C   0  0  0  0  0  0  0  0  0  0  0  0
    9.6599   -4.1551   16.4796 N   0  0  0  0  0  0  0  0  0  0  0  0
    7.0644   -6.4612   15.7375 N   0  0  0  0  0  0  0  0  0  0  0  0
    5.3549   -9.6322   18.3190 C   0  0  0  0  0  0  0  0  0  0  0  0
   10.3704   -4.9638   18.6510 C   0  0  0  0  0  0  0  0  0  0  0  0
    5.5935   -8.6419   17.4234 C   0  0  0  0  0  0  0  0  0  0  0  0
   13.0726   -4.6648   23.3394 O   0  0  0  0  0  0  0  0  0  0  0  0
    8.5955   -6.0705   17.3996 C   0  0  0  0  0  0  0  0  0  0  0  0
    4.6223   -8.3832   16.5030 C   0  0  0  0  0  0  0  0  0  0  0  0
   12.4690   -5.2624   19.9024 C   0  0  0  0  0  0  0  0  0  0  0  0
    3.2548   -9.9919   17.4189 C   0  0  0  0  0  0  0  0  0  0  0  0
   12.4767   -4.7393   22.1790 C   0  0  0  0  0  0  0  0  0  0  0  0
    7.8593   -5.3772   15.3569 N   0  0  0  0  0  0  0  0  0  0  0  0
    7.4412   -6.9038   16.9283 C   0  0  0  0  0  0  0  0  0  0  0  0
  1 21  4  0
  1 23  4  0
  2  5  1  0
  2 13  4  0
  2 16  4  0
  3  6  4  0
  3  7  4  0
  4 13  4  0
  4 19  4  0
  4 24  4  0
  6 23  4  0
  7 16  1  0
  7 21  4  0
  8 18  1  0
  9 20  4  0
  9 22  4  0
 10 17  1  0
 10 25  1  0
 11 16  4  0
 11 19  4  0
 12 15  4  0
 12 22  4  0
 14 24  4  0
 14 25  4  0
 15 17  4  0
 17 20  4  0
 18 23  1  0
 19 25  4  0
M  END
$$$$

 Created by Python create_sdf_string function

 25 28  0  0  0  0  0  0  0  0999 V2000
   13.1533   -5.2399   21.0682 C   0  0  0  0  0  0  0  0  0  0  0  0
   10.4729   -4.0295   17.6135 C   0  0  0  0  0  0  0  0  0  0  0  0
   10.4789   -4.3641   20.9564 C   0  0  0  0  0  0  0  0  0  0  0  0
    8.7421   -5.1412   16.3650 C   0  0  0  0  0  0  0  0  0  0  0  0
   11.4353   -2.9204   17.8044 C   0  0  0  0  0  0  0  0  0  0  0  0
   11.1529   -4.3028   22.1277 C   0  0  0  0  0  0  0  0  0  0  0  0
   11.1290   -4.8502   19.8052 C   0  0  0  0  0  0  0  0  0  0  0  0
   12.4329   -4.2159   24.4224 C   0  0  0  0  0  0  0  0  0  0  0  0
    3.4740   -9.0387   16.5022 C   0  0  0  0  0  0  0  0  0  0  0  0
    6.8384   -7.9290   17.5282 N   0  0  0  0  0  0  0  0  0  0  0  0
    9.4126   -5.9853   18.4899 C   0  0  0  0  0  0  0  0  0  0  0  0
    4.2064  -10.3242   18.3302 C   0  0  0  0  0  0  0  0  0  0  0  0
    9.6599   -4.1551   16.4796 N   0  0  0  0  0  0  0  0  0  0  0  0
    7.0644   -6.4612   15.7375 N   0  0  0  0  0  0  0  0  0  0  0  0
    5.3549   -9.6322   18.3190 C   0  0  0  0  0  0  0  0  0  0  0  0
   10.3704   -4.9638   18.6510 C   0  0  0  0  0  0  0  0  0  0  0  0
    5.5935   -8.6419   17.4234 C   0  0  0  0  0  0  0  0  0  0  0  0
   13.0726   -4.6648   23.3394 O   0  0  0  0  0  0  0  0  0  0  0  0
    8.5955   -6.0705   17.3996 C   0  0  0  0  0  0  0  0  0  0  0  0
    4.6223   -8.3832   16.5030 C   0  0  0  0  0  0  0  0  0  0  0  0
   12.4690   -5.2624   19.9024 C   0  0  0  0  0  0  0  0  0  0  0  0
    3.2548   -9.9919   17.4189 C   0  0  0  0  0  0  0  0  0  0  0  0
   12.4767   -4.7393   22.1790 C   0  0  0  0  0  0  0  0  0  0  0  0
    7.8593   -5.3772   15.3569 N   0  0  0  0  0  0  0  0  0  0  0  0
    7.4412   -6.9038   16.9283 C   0  0  0  0  0  0  0  0  0  0  0  0
  1 21  4  0
  1 23  4  0
  2  5  1  0
  2 13  4  0
  2 16  4  0
  3  6  4  0
  3  7  4  0
  4 13  4  0
  4 19  4  0
  4 24  4  0
  6 23  4  0
  7 16  1  0
  7 21  4  0
  8 18  1  0
  9 20  4  0
  9 22  4  0
 10 17  1  0
 10 25  1  0
 11 16  4  0
 11 19  4  0
 12 15  4  0
 12 22  4  0
 14 24  4  0
 14 25  4  0
 15 17  4  0
 17 20  4  0
 18 23  1  0
 19 25  4  0
M  END
$$$$

 Created by Python create_sdf_string function

 25 28  0  0  0  0  0  0  0  0999 V2000
   13.1533   -5.2399   21.0682 C   0  0  0  0  0  0  0  0  0  0  0  0
   10.4729   -4.0295   17.6135 C   0  0  0  0  0  0  0  0  0  0  0  0
   10.4789   -4.3641   20.9564 C   0  0  0  0  0  0  0  0  0  0  0  0
    8.7421   -5.1412   16.3650 C   0  0  0  0  0  0  0  0  0  0  0  0
   11.4353   -2.9204   17.8044 C   0  0  0  0  0  0  0  0  0  0  0  0
   11.1529   -4.3028   22.1277 C   0  0  0  0  0  0  0  0  0  0  0  0
   11.1290   -4.8502   19.8052 C   0  0  0  0  0  0  0  0  0  0  0  0
   12.4329   -4.2159   24.4224 C   0  0  0  0  0  0  0  0  0  0  0  0
    3.4740   -9.0387   16.5022 C   0  0  0  0  0  0  0  0  0  0  0  0
    6.8384   -7.9290   17.5282 N   0  0  0  0  0  0  0  0  0  0  0  0
    9.4126   -5.9853   18.4899 C   0  0  0  0  0  0  0  0  0  0  0  0
    4.2064  -10.3242   18.3302 C   0  0  0  0  0  0  0  0  0  0  0  0
    9.6599   -4.1551   16.4796 N   0  0  0  0  0  0  0  0  0  0  0  0
    7.0644   -6.4612   15.7375 N   0  0  0  0  0  0  0  0  0  0  0  0
    5.3549   -9.6322   18.3190 C   0  0  0  0  0  0  0  0  0  0  0  0
   10.3704   -4.9638   18.6510 C   0  0  0  0  0  0  0  0  0  0  0  0
    5.5935   -8.6419   17.4234 C   0  0  0  0  0  0  0  0  0  0  0  0
   13.0726   -4.6648   23.3394 O   0  0  0  0  0  0  0  0  0  0  0  0
    8.5955   -6.0705   17.3996 C   0  0  0  0  0  0  0  0  0  0  0  0
    4.6223   -8.3832   16.5030 C   0  0  0  0  0  0  0  0  0  0  0  0
   12.4690   -5.2624   19.9024 C   0  0  0  0  0  0  0  0  0  0  0  0
    3.2548   -9.9919   17.4189 C   0  0  0  0  0  0  0  0  0  0  0  0
   12.4767   -4.7393   22.1790 C   0  0  0  0  0  0  0  0  0  0  0  0
    7.8593   -5.3772   15.3569 N   0  0  0  0  0  0  0  0  0  0  0  0
    7.4412   -6.9038   16.9283 C   0  0  0  0  0  0  0  0  0  0  0  0
  1 21  4  0
  1 23  4  0
  2  5  1  0
  2 13  4  0
  2 16  4  0
  3  6  4  0
  3  7  4  0
  4 13  4  0
  4 19  4  0
  4 24  4  0
  6 23  4  0
  7 16  1  0
  7 21  4  0
  8 18  1  0
  9 20  4  0
  9 22  4  0
 10 17  1  0
 10 25  1  0
 11 16  4  0
 11 19  4  0
 12 15  4  0
 12 22  4  0
 14 24  4  0
 14 25  4  0
 15 17  4  0
 17 20  4  0
 18 23  1  0
 19 25  4  0
M  END
$$$$

 Created by Python create_sdf_string function

 25 28  0  0  0  0  0  0  0  0999 V2000
   13.1533   -5.2399   21.0682 C   0  0  0  0  0  0  0  0  0  0  0  0
   10.4729   -4.0295   17.6135 C   0  0  0  0  0  0  0  0  0  0  0  0
   10.4789   -4.3641   20.9564 C   0  0  0  0  0  0  0  0  0  0  0  0
    8.7421   -5.1412   16.3650 C   0  0  0  0  0  0  0  0  0  0  0  0
   11.4353   -2.9204   17.8044 C   0  0  0  0  0  0  0  0  0  0  0  0
   11.1529   -4.3028   22.1277 C   0  0  0  0  0  0  0  0  0  0  0  0
   11.1290   -4.8502   19.8052 C   0  0  0  0  0  0  0  0  0  0  0  0
   12.4329   -4.2159   24.4224 C   0  0  0  0  0  0  0  0  0  0  0  0
    3.4740   -9.0387   16.5022 C   0  0  0  0  0  0  0  0  0  0  0  0
    6.8384   -7.9290   17.5282 N   0  0  0  0  0  0  0  0  0  0  0  0
    9.4126   -5.9853   18.4899 C   0  0  0  0  0  0  0  0  0  0  0  0
    4.2064  -10.3242   18.3302 C   0  0  0  0  0  0  0  0  0  0  0  0
    9.6599   -4.1551   16.4796 N   0  0  0  0  0  0  0  0  0  0  0  0
    7.0644   -6.4612   15.7375 N   0  0  0  0  0  0  0  0  0  0  0  0
    5.3549   -9.6322   18.3190 C   0  0  0  0  0  0  0  0  0  0  0  0
   10.3704   -4.9638   18.6510 C   0  0  0  0  0  0  0  0  0  0  0  0
    5.5935   -8.6419   17.4234 C   0  0  0  0  0  0  0  0  0  0  0  0
   13.0726   -4.6648   23.3394 O   0  0  0  0  0  0  0  0  0  0  0  0
    8.5955   -6.0705   17.3996 C   0  0  0  0  0  0  0  0  0  0  0  0
    4.6223   -8.3832   16.5030 C   0  0  0  0  0  0  0  0  0  0  0  0
   12.4690   -5.2624   19.9024 C   0  0  0  0  0  0  0  0  0  0  0  0
    3.2548   -9.9919   17.4189 C   0  0  0  0  0  0  0  0  0  0  0  0
   12.4767   -4.7393   22.1790 C   0  0  0  0  0  0  0  0  0  0  0  0
    7.8593   -5.3772   15.3569 N   0  0  0  0  0  0  0  0  0  0  0  0
    7.4412   -6.9038   16.9283 C   0  0  0  0  0  0  0  0  0  0  0  0
  1 21  4  0
  1 23  4  0
  2  5  1  0
  2 13  4  0
  2 16  4  0
  3  6  4  0
  3  7  4  0
  4 13  4  0
  4 19  4  0
  4 24  4  0
  6 23  4  0
  7 16  1  0
  7 21  4  0
  8 18  1  0
  9 20  4  0
  9 22  4  0
 10 17  1  0
 10 25  1  0
 11 16  4  0
 11 19  4  0
 12 15  4  0
 12 22  4  0
 14 24  4  0
 14 25  4  0
 15 17  4  0
 17 20  4  0
 18 23  1  0
 19 25  4  0
M  END
$$$$

 Created by Python create_sdf_string function

 25 28  0  0  0  0  0  0  0  0999 V2000
   13.1533   -5.2399   21.0682 C   0  0  0  0  0  0  0  0  0  0  0  0
   10.4729   -4.0295   17.6135 C   0  0  0  0  0  0  0  0  0  0  0  0
   10.4789   -4.3641   20.9564 C   0  0  0  0  0  0  0  0  0  0  0  0
    8.7421   -5.1412   16.3650 C   0  0  0  0  0  0  0  0  0  0  0  0
   11.4353   -2.9204   17.8044 C   0  0  0  0  0  0  0  0  0  0  0  0
   11.1529   -4.3028   22.1277 C   0  0  0  0  0  0  0  0  0  0  0  0
   11.1290   -4.8502   19.8052 C   0  0  0  0  0  0  0  0  0  0  0  0
   12.4329   -4.2159   24.4224 C   0  0  0  0  0  0  0  0  0  0  0  0
    3.4740   -9.0387   16.5022 C   0  0  0  0  0  0  0  0  0  0  0  0
    6.8384   -7.9290   17.5282 N   0  0  0  0  0  0  0  0  0  0  0  0
    9.4126   -5.9853   18.4899 C   0  0  0  0  0  0  0  0  0  0  0  0
    4.2064  -10.3242   18.3302 C   0  0  0  0  0  0  0  0  0  0  0  0
    9.6599   -4.1551   16.4796 N   0  0  0  0  0  0  0  0  0  0  0  0
    7.0644   -6.4612   15.7375 N   0  0  0  0  0  0  0  0  0  0  0  0
    5.3549   -9.6322   18.3190 C   0  0  0  0  0  0  0  0  0  0  0  0
   10.3704   -4.9638   18.6510 C   0  0  0  0  0  0  0  0  0  0  0  0
    5.5935   -8.6419   17.4234 C   0  0  0  0  0  0  0  0  0  0  0  0
   13.0726   -4.6648   23.3394 O   0  0  0  0  0  0  0  0  0  0  0  0
    8.5955   -6.0705   17.3996 C   0  0  0  0  0  0  0  0  0  0  0  0
    4.6223   -8.3832   16.5030 C   0  0  0  0  0  0  0  0  0  0  0  0
   12.4690   -5.2624   19.9024 C   0  0  0  0  0  0  0  0  0  0  0  0
    3.2548   -9.9919   17.4189 C   0  0  0  0  0  0  0  0  0  0  0  0
   12.4767   -4.7393   22.1790 C   0  0  0  0  0  0  0  0  0  0  0  0
    7.8593   -5.3772   15.3569 N   0  0  0  0  0  0  0  0  0  0  0  0
    7.4412   -6.9038   16.9283 C   0  0  0  0  0  0  0  0  0  0  0  0
  1 21  4  0
  1 23  4  0
  2  5  1  0
  2 13  4  0
  2 16  4  0
  3  6  4  0
  3  7  4  0
  4 13  4  0
  4 19  4  0
  4 24  4  0
  6 23  4  0
  7 16  1  0
  7 21  4  0
  8 18  1  0
  9 20  4  0
  9 22  4  0
 10 17  1  0
 10 25  1  0
 11 16  4  0
 11 19  4  0
 12 15  4  0
 12 22  4  0
 14 24  4  0
 14 25  4  0
 15 17  4  0
 17 20  4  0
 18 23  1  0
 19 25  4  0
M  END
$$$$

 Created by Python create_sdf_string function

 25 28  0  0  0  0  0  0  0  0999 V2000
   13.1533   -5.2399   21.0682 C   0  0  0  0  0  0  0  0  0  0  0  0
   10.4729   -4.0295   17.6135 C   0  0  0  0  0  0  0  0  0  0  0  0
   10.4789   -4.3641   20.9564 C   0  0  0  0  0  0  0  0  0  0  0  0
    8.7421   -5.1412   16.3650 C   0  0  0  0  0  0  0  0  0  0  0  0
   11.4353   -2.9204   17.8044 C   0  0  0  0  0  0  0  0  0  0  0  0
   11.1529   -4.3028   22.1277 C   0  0  0  0  0  0  0  0  0  0  0  0
   11.1290   -4.8502   19.8052 C   0  0  0  0  0  0  0  0  0  0  0  0
   12.4329   -4.2159   24.4224 C   0  0  0  0  0  0  0  0  0  0  0  0
    3.4740   -9.0387   16.5022 C   0  0  0  0  0  0  0  0  0  0  0  0
    6.8384   -7.9290   17.5282 N   0  0  0  0  0  0  0  0  0  0  0  0
    9.4126   -5.9853   18.4899 C   0  0  0  0  0  0  0  0  0  0  0  0
    4.2064  -10.3242   18.3302 C   0  0  0  0  0  0  0  0  0  0  0  0
    9.6599   -4.1551   16.4796 N   0  0  0  0  0  0  0  0  0  0  0  0
    7.0644   -6.4612   15.7375 N   0  0  0  0  0  0  0  0  0  0  0  0
    5.3549   -9.6322   18.3190 C   0  0  0  0  0  0  0  0  0  0  0  0
   10.3704   -4.9638   18.6510 C   0  0  0  0  0  0  0  0  0  0  0  0
    5.5935   -8.6419   17.4234 C   0  0  0  0  0  0  0  0  0  0  0  0
   13.0726   -4.6648   23.3394 O   0  0  0  0  0  0  0  0  0  0  0  0
    8.5955   -6.0705   17.3996 C   0  0  0  0  0  0  0  0  0  0  0  0
    4.6223   -8.3832   16.5030 C   0  0  0  0  0  0  0  0  0  0  0  0
   12.4690   -5.2624   19.9024 C   0  0  0  0  0  0  0  0  0  0  0  0
    3.2548   -9.9919   17.4189 C   0  0  0  0  0  0  0  0  0  0  0  0
   12.4767   -4.7393   22.1790 C   0  0  0  0  0  0  0  0  0  0  0  0
    7.8593   -5.3772   15.3569 N   0  0  0  0  0  0  0  0  0  0  0  0
    7.4412   -6.9038   16.9283 C   0  0  0  0  0  0  0  0  0  0  0  0
  1 21  4  0
  1 23  4  0
  2  5  1  0
  2 13  4  0
  2 16  4  0
  3  6  4  0
  3  7  4  0
  4 13  4  0
  4 19  4  0
  4 24  4  0
  6 23  4  0
  7 16  1  0
  7 21  4  0
  8 18  1  0
  9 20  4  0
  9 22  4  0
 10 17  1  0
 10 25  1  0
 11 16  4  0
 11 19  4  0
 12 15  4  0
 12 22  4  0
 14 24  4  0
 14 25  4  0
 15 17  4  0
 17 20  4  0
 18 23  1  0
 19 25  4  0
M  END
$$$$

 Created by Python create_sdf_string function

 25 28  0  0  0  0  0  0  0  0999 V2000
   13.1533   -5.2399   21.0682 C   0  0  0  0  0  0  0  0  0  0  0  0
   10.4729   -4.0295   17.6135 C   0  0  0  0  0  0  0  0  0  0  0  0
   10.4789   -4.3641   20.9564 C   0  0  0  0  0  0  0  0  0  0  0  0
    8.7421   -5.1412   16.3650 C   0  0  0  0  0  0  0  0  0  0  0  0
   11.4353   -2.9204   17.8044 C   0  0  0  0  0  0  0  0  0  0  0  0
   11.1529   -4.3028   22.1277 C   0  0  0  0  0  0  0  0  0  0  0  0
   11.1290   -4.8502   19.8052 C   0  0  0  0  0  0  0  0  0  0  0  0
   12.4329   -4.2159   24.4224 C   0  0  0  0  0  0  0  0  0  0  0  0
    3.4740   -9.0387   16.5022 C   0  0  0  0  0  0  0  0  0  0  0  0
    6.8384   -7.9290   17.5282 N   0  0  0  0  0  0  0  0  0  0  0  0
    9.4126   -5.9853   18.4899 C   0  0  0  0  0  0  0  0  0  0  0  0
    4.2064  -10.3242   18.3302 C   0  0  0  0  0  0  0  0  0  0  0  0
    9.6599   -4.1551   16.4796 N   0  0  0  0  0  0  0  0  0  0  0  0
    7.0644   -6.4612   15.7375 N   0  0  0  0  0  0  0  0  0  0  0  0
    5.3549   -9.6322   18.3190 C   0  0  0  0  0  0  0  0  0  0  0  0
   10.3704   -4.9638   18.6510 C   0  0  0  0  0  0  0  0  0  0  0  0
    5.5935   -8.6419   17.4234 C   0  0  0  0  0  0  0  0  0  0  0  0
   13.0726   -4.6648   23.3394 O   0  0  0  0  0  0  0  0  0  0  0  0
    8.5955   -6.0705   17.3996 C   0  0  0  0  0  0  0  0  0  0  0  0
    4.6223   -8.3832   16.5030 C   0  0  0  0  0  0  0  0  0  0  0  0
   12.4690   -5.2624   19.9024 C   0  0  0  0  0  0  0  0  0  0  0  0
    3.2548   -9.9919   17.4189 C   0  0  0  0  0  0  0  0  0  0  0  0
   12.4767   -4.7393   22.1790 C   0  0  0  0  0  0  0  0  0  0  0  0
    7.8593   -5.3772   15.3569 N   0  0  0  0  0  0  0  0  0  0  0  0
    7.4412   -6.9038   16.9283 C   0  0  0  0  0  0  0  0  0  0  0  0
  1 21  4  0
  1 23  4  0
  2  5  1  0
  2 13  4  0
  2 16  4  0
  3  6  4  0
  3  7  4  0
  4 13  4  0
  4 19  4  0
  4 24  4  0
  6 23  4  0
  7 16  1  0
  7 21  4  0
  8 18  1  0
  9 20  4  0
  9 22  4  0
 10 17  1  0
 10 25  1  0
 11 16  4  0
 11 19  4  0
 12 15  4  0
 12 22  4  0
 14 24  4  0
 14 25  4  0
 15 17  4  0
 17 20  4  0
 18 23  1  0
 19 25  4  0
M  END
$$$$

 Created by Python create_sdf_string function

 25 28  0  0  0  0  0  0  0  0999 V2000
   13.1533   -5.2399   21.0682 C   0  0  0  0  0  0  0  0  0  0  0  0
   10.4729   -4.0295   17.6135 C   0  0  0  0  0  0  0  0  0  0  0  0
   10.4789   -4.3641   20.9564 C   0  0  0  0  0  0  0  0  0  0  0  0
    8.7421   -5.1412   16.3650 C   0  0  0  0  0  0  0  0  0  0  0  0
   11.4353   -2.9204   17.8044 C   0  0  0  0  0  0  0  0  0  0  0  0
   11.1529   -4.3028   22.1277 C   0  0  0  0  0  0  0  0  0  0  0  0
   11.1290   -4.8502   19.8052 C   0  0  0  0  0  0  0  0  0  0  0  0
   12.4329   -4.2159   24.4224 C   0  0  0  0  0  0  0  0  0  0  0  0
    3.4740   -9.0387   16.5022 C   0  0  0  0  0  0  0  0  0  0  0  0
    6.8384   -7.9290   17.5282 N   0  0  0  0  0  0  0  0  0  0  0  0
    9.4126   -5.9853   18.4899 C   0  0  0  0  0  0  0  0  0  0  0  0
    4.2064  -10.3242   18.3302 C   0  0  0  0  0  0  0  0  0  0  0  0
    9.6599   -4.1551   16.4796 N   0  0  0  0  0  0  0  0  0  0  0  0
    7.0644   -6.4612   15.7375 N   0  0  0  0  0  0  0  0  0  0  0  0
    5.3549   -9.6322   18.3190 C   0  0  0  0  0  0  0  0  0  0  0  0
   10.3704   -4.9638   18.6510 C   0  0  0  0  0  0  0  0  0  0  0  0
    5.5935   -8.6419   17.4234 C   0  0  0  0  0  0  0  0  0  0  0  0
   13.0726   -4.6648   23.3394 O   0  0  0  0  0  0  0  0  0  0  0  0
    8.5955   -6.0705   17.3996 C   0  0  0  0  0  0  0  0  0  0  0  0
    4.6223   -8.3832   16.5030 C   0  0  0  0  0  0  0  0  0  0  0  0
   12.4690   -5.2624   19.9024 C   0  0  0  0  0  0  0  0  0  0  0  0
    3.2548   -9.9919   17.4189 C   0  0  0  0  0  0  0  0  0  0  0  0
   12.4767   -4.7393   22.1790 C   0  0  0  0  0  0  0  0  0  0  0  0
    7.8593   -5.3772   15.3569 N   0  0  0  0  0  0  0  0  0  0  0  0
    7.4412   -6.9038   16.9283 C   0  0  0  0  0  0  0  0  0  0  0  0
  1 21  4  0
  1 23  4  0
  2  5  1  0
  2 13  4  0
  2 16  4  0
  3  6  4  0
  3  7  4  0
  4 13  4  0
  4 19  4  0
  4 24  4  0
  6 23  4  0
  7 16  1  0
  7 21  4  0
  8 18  1  0
  9 20  4  0
  9 22  4  0
 10 17  1  0
 10 25  1  0
 11 16  4  0
 11 19  4  0
 12 15  4  0
 12 22  4  0
 14 24  4  0
 14 25  4  0
 15 17  4  0
 17 20  4  0
 18 23  1  0
 19 25  4  0
M  END
$$$$

 Created by Python create_sdf_string function

 25 28  0  0  0  0  0  0  0  0999 V2000
   13.1533   -5.2399   21.0682 C   0  0  0  0  0  0  0  0  0  0  0  0
   10.4729   -4.0295   17.6135 C   0  0  0  0  0  0  0  0  0  0  0  0
   10.4789   -4.3641   20.9564 C   0  0  0  0  0  0  0  0  0  0  0  0
    8.7421   -5.1412   16.3650 C   0  0  0  0  0  0  0  0  0  0  0  0
   11.4353   -2.9204   17.8044 C   0  0  0  0  0  0  0  0  0  0  0  0
   11.1529   -4.3028   22.1277 C   0  0  0  0  0  0  0  0  0  0  0  0
   11.1290   -4.8502   19.8052 C   0  0  0  0  0  0  0  0  0  0  0  0
   12.4329   -4.2159   24.4224 C   0  0  0  0  0  0  0  0  0  0  0  0
    3.4740   -9.0387   16.5022 C   0  0  0  0  0  0  0  0  0  0  0  0
    6.8384   -7.9290   17.5282 N   0  0  0  0  0  0  0  0  0  0  0  0
    9.4126   -5.9853   18.4899 C   0  0  0  0  0  0  0  0  0  0  0  0
    4.2064  -10.3242   18.3302 C   0  0  0  0  0  0  0  0  0  0  0  0
    9.6599   -4.1551   16.4796 N   0  0  0  0  0  0  0  0  0  0  0  0
    7.0644   -6.4612   15.7375 N   0  0  0  0  0  0  0  0  0  0  0  0
    5.3549   -9.6322   18.3190 C   0  0  0  0  0  0  0  0  0  0  0  0
   10.3704   -4.9638   18.6510 C   0  0  0  0  0  0  0  0  0  0  0  0
    5.5935   -8.6419   17.4234 C   0  0  0  0  0  0  0  0  0  0  0  0
   13.0726   -4.6648   23.3394 O   0  0  0  0  0  0  0  0  0  0  0  0
    8.5955   -6.0705   17.3996 C   0  0  0  0  0  0  0  0  0  0  0  0
    4.6223   -8.3832   16.5030 C   0  0  0  0  0  0  0  0  0  0  0  0
   12.4690   -5.2624   19.9024 C   0  0  0  0  0  0  0  0  0  0  0  0
    3.2548   -9.9919   17.4189 C   0  0  0  0  0  0  0  0  0  0  0  0
   12.4767   -4.7393   22.1790 C   0  0  0  0  0  0  0  0  0  0  0  0
    7.8593   -5.3772   15.3569 N   0  0  0  0  0  0  0  0  0  0  0  0
    7.4412   -6.9038   16.9283 C   0  0  0  0  0  0  0  0  0  0  0  0
  1 21  4  0
  1 23  4  0
  2  5  1  0
  2 13  4  0
  2 16  4  0
  3  6  4  0
  3  7  4  0
  4 13  4  0
  4 19  4  0
  4 24  4  0
  6 23  4  0
  7 16  1  0
  7 21  4  0
  8 18  1  0
  9 20  4  0
  9 22  4  0
 10 17  1  0
 10 25  1  0
 11 16  4  0
 11 19  4  0
 12 15  4  0
 12 22  4  0
 14 24  4  0
 14 25  4  0
 15 17  4  0
 17 20  4  0
 18 23  1  0
 19 25  4  0
M  END
$$$$

 Created by Python create_sdf_string function

 25 28  0  0  0  0  0  0  0  0999 V2000
   13.1533   -5.2399   21.0682 C   0  0  0  0  0  0  0  0  0  0  0  0
   10.4729   -4.0295   17.6135 C   0  0  0  0  0  0  0  0  0  0  0  0
   10.4789   -4.3641   20.9564 C   0  0  0  0  0  0  0  0  0  0  0  0
    8.7421   -5.1412   16.3650 C   0  0  0  0  0  0  0  0  0  0  0  0
   11.4353   -2.9204   17.8044 C   0  0  0  0  0  0  0  0  0  0  0  0
   11.1529   -4.3028   22.1277 C   0  0  0  0  0  0  0  0  0  0  0  0
   11.1290   -4.8502   19.8052 C   0  0  0  0  0  0  0  0  0  0  0  0
   12.4329   -4.2159   24.4224 C   0  0  0  0  0  0  0  0  0  0  0  0
    3.4740   -9.0387   16.5022 C   0  0  0  0  0  0  0  0  0  0  0  0
    6.8384   -7.9290   17.5282 N   0  0  0  0  0  0  0  0  0  0  0  0
    9.4126   -5.9853   18.4899 C   0  0  0  0  0  0  0  0  0  0  0  0
    4.2064  -10.3242   18.3302 C   0  0  0  0  0  0  0  0  0  0  0  0
    9.6599   -4.1551   16.4796 N   0  0  0  0  0  0  0  0  0  0  0  0
    7.0644   -6.4612   15.7375 N   0  0  0  0  0  0  0  0  0  0  0  0
    5.3549   -9.6322   18.3190 C   0  0  0  0  0  0  0  0  0  0  0  0
   10.3704   -4.9638   18.6510 C   0  0  0  0  0  0  0  0  0  0  0  0
    5.5935   -8.6419   17.4234 C   0  0  0  0  0  0  0  0  0  0  0  0
   13.0726   -4.6648   23.3394 O   0  0  0  0  0  0  0  0  0  0  0  0
    8.5955   -6.0705   17.3996 C   0  0  0  0  0  0  0  0  0  0  0  0
    4.6223   -8.3832   16.5030 C   0  0  0  0  0  0  0  0  0  0  0  0
   12.4690   -5.2624   19.9024 C   0  0  0  0  0  0  0  0  0  0  0  0
    3.2548   -9.9919   17.4189 C   0  0  0  0  0  0  0  0  0  0  0  0
   12.4767   -4.7393   22.1790 C   0  0  0  0  0  0  0  0  0  0  0  0
    7.8593   -5.3772   15.3569 N   0  0  0  0  0  0  0  0  0  0  0  0
    7.4412   -6.9038   16.9283 C   0  0  0  0  0  0  0  0  0  0  0  0
  1 21  4  0
  1 23  4  0
  2  5  1  0
  2 13  4  0
  2 16  4  0
  3  6  4  0
  3  7  4  0
  4 13  4  0
  4 19  4  0
  4 24  4  0
  6 23  4  0
  7 16  1  0
  7 21  4  0
  8 18  1  0
  9 20  4  0
  9 22  4  0
 10 17  1  0
 10 25  1  0
 11 16  4  0
 11 19  4  0
 12 15  4  0
 12 22  4  0
 14 24  4  0
 14 25  4  0
 15 17  4  0
 17 20  4  0
 18 23  1  0
 19 25  4  0
M  END
$$$$

 Created by Python create_sdf_string function

 25 28  0  0  0  0  0  0  0  0999 V2000
   13.1533   -5.2399   21.0682 C   0  0  0  0  0  0  0  0  0  0  0  0
   10.4729   -4.0295   17.6135 C   0  0  0  0  0  0  0  0  0  0  0  0
   10.4789   -4.3641   20.9564 C   0  0  0  0  0  0  0  0  0  0  0  0
    8.7421   -5.1412   16.3650 C   0  0  0  0  0  0  0  0  0  0  0  0
   11.4353   -2.9204   17.8044 C   0  0  0  0  0  0  0  0  0  0  0  0
   11.1529   -4.3028   22.1277 C   0  0  0  0  0  0  0  0  0  0  0  0
   11.1290   -4.8502   19.8052 C   0  0  0  0  0  0  0  0  0  0  0  0
   12.4329   -4.2159   24.4224 C   0  0  0  0  0  0  0  0  0  0  0  0
    3.4740   -9.0387   16.5022 C   0  0  0  0  0  0  0  0  0  0  0  0
    6.8384   -7.9290   17.5282 N   0  0  0  0  0  0  0  0  0  0  0  0
    9.4126   -5.9853   18.4899 C   0  0  0  0  0  0  0  0  0  0  0  0
    4.2064  -10.3242   18.3302 C   0  0  0  0  0  0  0  0  0  0  0  0
    9.6599   -4.1551   16.4796 N   0  0  0  0  0  0  0  0  0  0  0  0
    7.0644   -6.4612   15.7375 N   0  0  0  0  0  0  0  0  0  0  0  0
    5.3549   -9.6322   18.3190 C   0  0  0  0  0  0  0  0  0  0  0  0
   10.3704   -4.9638   18.6510 C   0  0  0  0  0  0  0  0  0  0  0  0
    5.5935   -8.6419   17.4234 C   0  0  0  0  0  0  0  0  0  0  0  0
   13.0726   -4.6648   23.3394 O   0  0  0  0  0  0  0  0  0  0  0  0
    8.5955   -6.0705   17.3996 C   0  0  0  0  0  0  0  0  0  0  0  0
    4.6223   -8.3832   16.5030 C   0  0  0  0  0  0  0  0  0  0  0  0
   12.4690   -5.2624   19.9024 C   0  0  0  0  0  0  0  0  0  0  0  0
    3.2548   -9.9919   17.4189 C   0  0  0  0  0  0  0  0  0  0  0  0
   12.4767   -4.7393   22.1790 C   0  0  0  0  0  0  0  0  0  0  0  0
    7.8593   -5.3772   15.3569 N   0  0  0  0  0  0  0  0  0  0  0  0
    7.4412   -6.9038   16.9283 C   0  0  0  0  0  0  0  0  0  0  0  0
  1 21  4  0
  1 23  4  0
  2  5  1  0
  2 13  4  0
  2 16  4  0
  3  6  4  0
  3  7  4  0
  4 13  4  0
  4 19  4  0
  4 24  4  0
  6 23  4  0
  7 16  1  0
  7 21  4  0
  8 18  1  0
  9 20  4  0
  9 22  4  0
 10 17  1  0
 10 25  1  0
 11 16  4  0
 11 19  4  0
 12 15  4  0
 12 22  4  0
 14 24  4  0
 14 25  4  0
 15 17  4  0
 17 20  4  0
 18 23  1  0
 19 25  4  0
M  END
$$$$

 Created by Python create_sdf_string function

 25 28  0  0  0  0  0  0  0  0999 V2000
   13.1533   -5.2399   21.0682 C   0  0  0  0  0  0  0  0  0  0  0  0
   10.4729   -4.0295   17.6135 C   0  0  0  0  0  0  0  0  0  0  0  0
   10.4789   -4.3641   20.9564 C   0  0  0  0  0  0  0  0  0  0  0  0
    8.7421   -5.1412   16.3650 C   0  0  0  0  0  0  0  0  0  0  0  0
   11.4353   -2.9204   17.8044 C   0  0  0  0  0  0  0  0  0  0  0  0
   11.1529   -4.3028   22.1277 C   0  0  0  0  0  0  0  0  0  0  0  0
   11.1290   -4.8502   19.8052 C   0  0  0  0  0  0  0  0  0  0  0  0
   12.4329   -4.2159   24.4224 C   0  0  0  0  0  0  0  0  0  0  0  0
    3.4740   -9.0387   16.5022 C   0  0  0  0  0  0  0  0  0  0  0  0
    6.8384   -7.9290   17.5282 N   0  0  0  0  0  0  0  0  0  0  0  0
    9.4126   -5.9853   18.4899 C   0  0  0  0  0  0  0  0  0  0  0  0
    4.2064  -10.3242   18.3302 C   0  0  0  0  0  0  0  0  0  0  0  0
    9.6599   -4.1551   16.4796 N   0  0  0  0  0  0  0  0  0  0  0  0
    7.0644   -6.4612   15.7375 N   0  0  0  0  0  0  0  0  0  0  0  0
    5.3549   -9.6322   18.3190 C   0  0  0  0  0  0  0  0  0  0  0  0
   10.3704   -4.9638   18.6510 C   0  0  0  0  0  0  0  0  0  0  0  0
    5.5935   -8.6419   17.4234 C   0  0  0  0  0  0  0  0  0  0  0  0
   13.0726   -4.6648   23.3394 O   0  0  0  0  0  0  0  0  0  0  0  0
    8.5955   -6.0705   17.3996 C   0  0  0  0  0  0  0  0  0  0  0  0
    4.6223   -8.3832   16.5030 C   0  0  0  0  0  0  0  0  0  0  0  0
   12.4690   -5.2624   19.9024 C   0  0  0  0  0  0  0  0  0  0  0  0
    3.2548   -9.9919   17.4189 C   0  0  0  0  0  0  0  0  0  0  0  0
   12.4767   -4.7393   22.1790 C   0  0  0  0  0  0  0  0  0  0  0  0
    7.8593   -5.3772   15.3569 N   0  0  0  0  0  0  0  0  0  0  0  0
    7.4412   -6.9038   16.9283 C   0  0  0  0  0  0  0  0  0  0  0  0
  1 21  4  0
  1 23  4  0
  2  5  1  0
  2 13  4  0
  2 16  4  0
  3  6  4  0
  3  7  4  0
  4 13  4  0
  4 19  4  0
  4 24  4  0
  6 23  4  0
  7 16  1  0
  7 21  4  0
  8 18  1  0
  9 20  4  0
  9 22  4  0
 10 17  1  0
 10 25  1  0
 11 16  4  0
 11 19  4  0
 12 15  4  0
 12 22  4  0
 14 24  4  0
 14 25  4  0
 15 17  4  0
 17 20  4  0
 18 23  1  0
 19 25  4  0
M  END
$$$$

 Created by Python create_sdf_string function

 25 28  0  0  0  0  0  0  0  0999 V2000
   13.1533   -5.2399   21.0682 C   0  0  0  0  0  0  0  0  0  0  0  0
   10.4729   -4.0295   17.6135 C   0  0  0  0  0  0  0  0  0  0  0  0
   10.4789   -4.3641   20.9564 C   0  0  0  0  0  0  0  0  0  0  0  0
    8.7421   -5.1412   16.3650 C   0  0  0  0  0  0  0  0  0  0  0  0
   11.4353   -2.9204   17.8044 C   0  0  0  0  0  0  0  0  0  0  0  0
   11.1529   -4.3028   22.1277 C   0  0  0  0  0  0  0  0  0  0  0  0
   11.1290   -4.8502   19.8052 C   0  0  0  0  0  0  0  0  0  0  0  0
   12.4329   -4.2159   24.4224 C   0  0  0  0  0  0  0  0  0  0  0  0
    3.4740   -9.0387   16.5022 C   0  0  0  0  0  0  0  0  0  0  0  0
    6.8384   -7.9290   17.5282 N   0  0  0  0  0  0  0  0  0  0  0  0
    9.4126   -5.9853   18.4899 C   0  0  0  0  0  0  0  0  0  0  0  0
    4.2064  -10.3242   18.3302 C   0  0  0  0  0  0  0  0  0  0  0  0
    9.6599   -4.1551   16.4796 N   0  0  0  0  0  0  0  0  0  0  0  0
    7.0644   -6.4612   15.7375 N   0  0  0  0  0  0  0  0  0  0  0  0
    5.3549   -9.6322   18.3190 C   0  0  0  0  0  0  0  0  0  0  0  0
   10.3704   -4.9638   18.6510 C   0  0  0  0  0  0  0  0  0  0  0  0
    5.5935   -8.6419   17.4234 C   0  0  0  0  0  0  0  0  0  0  0  0
   13.0726   -4.6648   23.3394 O   0  0  0  0  0  0  0  0  0  0  0  0
    8.5955   -6.0705   17.3996 C   0  0  0  0  0  0  0  0  0  0  0  0
    4.6223   -8.3832   16.5030 C   0  0  0  0  0  0  0  0  0  0  0  0
   12.4690   -5.2624   19.9024 C   0  0  0  0  0  0  0  0  0  0  0  0
    3.2548   -9.9919   17.4189 C   0  0  0  0  0  0  0  0  0  0  0  0
   12.4767   -4.7393   22.1790 C   0  0  0  0  0  0  0  0  0  0  0  0
    7.8593   -5.3772   15.3569 N   0  0  0  0  0  0  0  0  0  0  0  0
    7.4412   -6.9038   16.9283 C   0  0  0  0  0  0  0  0  0  0  0  0
  1 21  4  0
  1 23  4  0
  2  5  1  0
  2 13  4  0
  2 16  4  0
  3  6  4  0
  3  7  4  0
  4 13  4  0
  4 19  4  0
  4 24  4  0
  6 23  4  0
  7 16  1  0
  7 21  4  0
  8 18  1  0
  9 20  4  0
  9 22  4  0
 10 17  1  0
 10 25  1  0
 11 16  4  0
 11 19  4  0
 12 15  4  0
 12 22  4  0
 14 24  4  0
 14 25  4  0
 15 17  4  0
 17 20  4  0
 18 23  1  0
 19 25  4  0
M  END
$$$$

 Created by Python create_sdf_string function

 25 28  0  0  0  0  0  0  0  0999 V2000
   13.1533   -5.2399   21.0682 C   0  0  0  0  0  0  0  0  0  0  0  0
   10.4729   -4.0295   17.6135 C   0  0  0  0  0  0  0  0  0  0  0  0
   10.4789   -4.3641   20.9564 C   0  0  0  0  0  0  0  0  0  0  0  0
    8.7421   -5.1412   16.3650 C   0  0  0  0  0  0  0  0  0  0  0  0
   11.4353   -2.9204   17.8044 C   0  0  0  0  0  0  0  0  0  0  0  0
   11.1529   -4.3028   22.1277 C   0  0  0  0  0  0  0  0  0  0  0  0
   11.1290   -4.8502   19.8052 C   0  0  0  0  0  0  0  0  0  0  0  0
   12.4329   -4.2159   24.4224 C   0  0  0  0  0  0  0  0  0  0  0  0
    3.4740   -9.0387   16.5022 C   0  0  0  0  0  0  0  0  0  0  0  0
    6.8384   -7.9290   17.5282 N   0  0  0  0  0  0  0  0  0  0  0  0
    9.4126   -5.9853   18.4899 C   0  0  0  0  0  0  0  0  0  0  0  0
    4.2064  -10.3242   18.3302 C   0  0  0  0  0  0  0  0  0  0  0  0
    9.6599   -4.1551   16.4796 N   0  0  0  0  0  0  0  0  0  0  0  0
    7.0644   -6.4612   15.7375 N   0  0  0  0  0  0  0  0  0  0  0  0
    5.3549   -9.6322   18.3190 C   0  0  0  0  0  0  0  0  0  0  0  0
   10.3704   -4.9638   18.6510 C   0  0  0  0  0  0  0  0  0  0  0  0
    5.5935   -8.6419   17.4234 C   0  0  0  0  0  0  0  0  0  0  0  0
   13.0726   -4.6648   23.3394 O   0  0  0  0  0  0  0  0  0  0  0  0
    8.5955   -6.0705   17.3996 C   0  0  0  0  0  0  0  0  0  0  0  0
    4.6223   -8.3832   16.5030 C   0  0  0  0  0  0  0  0  0  0  0  0
   12.4690   -5.2624   19.9024 C   0  0  0  0  0  0  0  0  0  0  0  0
    3.2548   -9.9919   17.4189 C   0  0  0  0  0  0  0  0  0  0  0  0
   12.4767   -4.7393   22.1790 C   0  0  0  0  0  0  0  0  0  0  0  0
    7.8593   -5.3772   15.3569 N   0  0  0  0  0  0  0  0  0  0  0  0
    7.4412   -6.9038   16.9283 C   0  0  0  0  0  0  0  0  0  0  0  0
  1 21  4  0
  1 23  4  0
  2  5  1  0
  2 13  4  0
  2 16  4  0
  3  6  4  0
  3  7  4  0
  4 13  4  0
  4 19  4  0
  4 24  4  0
  6 23  4  0
  7 16  1  0
  7 21  4  0
  8 18  1  0
  9 20  4  0
  9 22  4  0
 10 17  1  0
 10 25  1  0
 11 16  4  0
 11 19  4  0
 12 15  4  0
 12 22  4  0
 14 24  4  0
 14 25  4  0
 15 17  4  0
 17 20  4  0
 18 23  1  0
 19 25  4  0
M  END
$$$$

 Created by Python create_sdf_string function

 25 28  0  0  0  0  0  0  0  0999 V2000
   13.1533   -5.2399   21.0682 C   0  0  0  0  0  0  0  0  0  0  0  0
   10.4729   -4.0295   17.6135 C   0  0  0  0  0  0  0  0  0  0  0  0
   10.4789   -4.3641   20.9564 C   0  0  0  0  0  0  0  0  0  0  0  0
    8.7421   -5.1412   16.3650 C   0  0  0  0  0  0  0  0  0  0  0  0
   11.4353   -2.9204   17.8044 C   0  0  0  0  0  0  0  0  0  0  0  0
   11.1529   -4.3028   22.1277 C   0  0  0  0  0  0  0  0  0  0  0  0
   11.1290   -4.8502   19.8052 C   0  0  0  0  0  0  0  0  0  0  0  0
   12.4329   -4.2159   24.4224 C   0  0  0  0  0  0  0  0  0  0  0  0
    3.4740   -9.0387   16.5022 C   0  0  0  0  0  0  0  0  0  0  0  0
    6.8384   -7.9290   17.5282 N   0  0  0  0  0  0  0  0  0  0  0  0
    9.4126   -5.9853   18.4899 C   0  0  0  0  0  0  0  0  0  0  0  0
    4.2064  -10.3242   18.3302 C   0  0  0  0  0  0  0  0  0  0  0  0
    9.6599   -4.1551   16.4796 N   0  0  0  0  0  0  0  0  0  0  0  0
    7.0644   -6.4612   15.7375 N   0  0  0  0  0  0  0  0  0  0  0  0
    5.3549   -9.6322   18.3190 C   0  0  0  0  0  0  0  0  0  0  0  0
   10.3704   -4.9638   18.6510 C   0  0  0  0  0  0  0  0  0  0  0  0
    5.5935   -8.6419   17.4234 C   0  0  0  0  0  0  0  0  0  0  0  0
   13.0726   -4.6648   23.3394 O   0  0  0  0  0  0  0  0  0  0  0  0
    8.5955   -6.0705   17.3996 C   0  0  0  0  0  0  0  0  0  0  0  0
    4.6223   -8.3832   16.5030 C   0  0  0  0  0  0  0  0  0  0  0  0
   12.4690   -5.2624   19.9024 C   0  0  0  0  0  0  0  0  0  0  0  0
    3.2548   -9.9919   17.4189 C   0  0  0  0  0  0  0  0  0  0  0  0
   12.4767   -4.7393   22.1790 C   0  0  0  0  0  0  0  0  0  0  0  0
    7.8593   -5.3772   15.3569 N   0  0  0  0  0  0  0  0  0  0  0  0
    7.4412   -6.9038   16.9283 C   0  0  0  0  0  0  0  0  0  0  0  0
  1 21  4  0
  1 23  4  0
  2  5  1  0
  2 13  4  0
  2 16  4  0
  3  6  4  0
  3  7  4  0
  4 13  4  0
  4 19  4  0
  4 24  4  0
  6 23  4  0
  7 16  1  0
  7 21  4  0
  8 18  1  0
  9 20  4  0
  9 22  4  0
 10 17  1  0
 10 25  1  0
 11 16  4  0
 11 19  4  0
 12 15  4  0
 12 22  4  0
 14 24  4  0
 14 25  4  0
 15 17  4  0
 17 20  4  0
 18 23  1  0
 19 25  4  0
M  END
$$$$

 Created by Python create_sdf_string function

 25 28  0  0  0  0  0  0  0  0999 V2000
   13.1533   -5.2399   21.0682 C   0  0  0  0  0  0  0  0  0  0  0  0
   10.4729   -4.0295   17.6135 C   0  0  0  0  0  0  0  0  0  0  0  0
   10.4789   -4.3641   20.9564 C   0  0  0  0  0  0  0  0  0  0  0  0
    8.7421   -5.1412   16.3650 C   0  0  0  0  0  0  0  0  0  0  0  0
   11.4353   -2.9204   17.8044 C   0  0  0  0  0  0  0  0  0  0  0  0
   11.1529   -4.3028   22.1277 C   0  0  0  0  0  0  0  0  0  0  0  0
   11.1290   -4.8502   19.8052 C   0  0  0  0  0  0  0  0  0  0  0  0
   12.4329   -4.2159   24.4224 C   0  0  0  0  0  0  0  0  0  0  0  0
    3.4740   -9.0387   16.5022 C   0  0  0  0  0  0  0  0  0  0  0  0
    6.8384   -7.9290   17.5282 N   0  0  0  0  0  0  0  0  0  0  0  0
    9.4126   -5.9853   18.4899 C   0  0  0  0  0  0  0  0  0  0  0  0
    4.2064  -10.3242   18.3302 C   0  0  0  0  0  0  0  0  0  0  0  0
    9.6599   -4.1551   16.4796 N   0  0  0  0  0  0  0  0  0  0  0  0
    7.0644   -6.4612   15.7375 N   0  0  0  0  0  0  0  0  0  0  0  0
    5.3549   -9.6322   18.3190 C   0  0  0  0  0  0  0  0  0  0  0  0
   10.3704   -4.9638   18.6510 C   0  0  0  0  0  0  0  0  0  0  0  0
    5.5935   -8.6419   17.4234 C   0  0  0  0  0  0  0  0  0  0  0  0
   13.0726   -4.6648   23.3394 O   0  0  0  0  0  0  0  0  0  0  0  0
    8.5955   -6.0705   17.3996 C   0  0  0  0  0  0  0  0  0  0  0  0
    4.6223   -8.3832   16.5030 C   0  0  0  0  0  0  0  0  0  0  0  0
   12.4690   -5.2624   19.9024 C   0  0  0  0  0  0  0  0  0  0  0  0
    3.2548   -9.9919   17.4189 C   0  0  0  0  0  0  0  0  0  0  0  0
   12.4767   -4.7393   22.1790 C   0  0  0  0  0  0  0  0  0  0  0  0
    7.8593   -5.3772   15.3569 N   0  0  0  0  0  0  0  0  0  0  0  0
    7.4412   -6.9038   16.9283 C   0  0  0  0  0  0  0  0  0  0  0  0
  1 21  4  0
  1 23  4  0
  2  5  1  0
  2 13  4  0
  2 16  4  0
  3  6  4  0
  3  7  4  0
  4 13  4  0
  4 19  4  0
  4 24  4  0
  6 23  4  0
  7 16  1  0
  7 21  4  0
  8 18  1  0
  9 20  4  0
  9 22  4  0
 10 17  1  0
 10 25  1  0
 11 16  4  0
 11 19  4  0
 12 15  4  0
 12 22  4  0
 14 24  4  0
 14 25  4  0
 15 17  4  0
 17 20  4  0
 18 23  1  0
 19 25  4  0
M  END
$$$$

 Created by Python create_sdf_string function

 25 28  0  0  0  0  0  0  0  0999 V2000
   13.1533   -5.2399   21.0682 C   0  0  0  0  0  0  0  0  0  0  0  0
   10.4729   -4.0295   17.6135 C   0  0  0  0  0  0  0  0  0  0  0  0
   10.4789   -4.3641   20.9564 C   0  0  0  0  0  0  0  0  0  0  0  0
    8.7421   -5.1412   16.3650 C   0  0  0  0  0  0  0  0  0  0  0  0
   11.4353   -2.9204   17.8044 C   0  0  0  0  0  0  0  0  0  0  0  0
   11.1529   -4.3028   22.1277 C   0  0  0  0  0  0  0  0  0  0  0  0
   11.1290   -4.8502   19.8052 C   0  0  0  0  0  0  0  0  0  0  0  0
   12.4329   -4.2159   24.4224 C   0  0  0  0  0  0  0  0  0  0  0  0
    3.4740   -9.0387   16.5022 C   0  0  0  0  0  0  0  0  0  0  0  0
    6.8384   -7.9290   17.5282 N   0  0  0  0  0  0  0  0  0  0  0  0
    9.4126   -5.9853   18.4899 C   0  0  0  0  0  0  0  0  0  0  0  0
    4.2064  -10.3242   18.3302 C   0  0  0  0  0  0  0  0  0  0  0  0
    9.6599   -4.1551   16.4796 N   0  0  0  0  0  0  0  0  0  0  0  0
    7.0644   -6.4612   15.7375 N   0  0  0  0  0  0  0  0  0  0  0  0
    5.3549   -9.6322   18.3190 C   0  0  0  0  0  0  0  0  0  0  0  0
   10.3704   -4.9638   18.6510 C   0  0  0  0  0  0  0  0  0  0  0  0
    5.5935   -8.6419   17.4234 C   0  0  0  0  0  0  0  0  0  0  0  0
   13.0726   -4.6648   23.3394 O   0  0  0  0  0  0  0  0  0  0  0  0
    8.5955   -6.0705   17.3996 C   0  0  0  0  0  0  0  0  0  0  0  0
    4.6223   -8.3832   16.5030 C   0  0  0  0  0  0  0  0  0  0  0  0
   12.4690   -5.2624   19.9024 C   0  0  0  0  0  0  0  0  0  0  0  0
    3.2548   -9.9919   17.4189 C   0  0  0  0  0  0  0  0  0  0  0  0
   12.4767   -4.7393   22.1790 C   0  0  0  0  0  0  0  0  0  0  0  0
    7.8593   -5.3772   15.3569 N   0  0  0  0  0  0  0  0  0  0  0  0
    7.4412   -6.9038   16.9283 C   0  0  0  0  0  0  0  0  0  0  0  0
  1 21  4  0
  1 23  4  0
  2  5  1  0
  2 13  4  0
  2 16  4  0
  3  6  4  0
  3  7  4  0
  4 13  4  0
  4 19  4  0
  4 24  4  0
  6 23  4  0
  7 16  1  0
  7 21  4  0
  8 18  1  0
  9 20  4  0
  9 22  4  0
 10 17  1  0
 10 25  1  0
 11 16  4  0
 11 19  4  0
 12 15  4  0
 12 22  4  0
 14 24  4  0
 14 25  4  0
 15 17  4  0
 17 20  4  0
 18 23  1  0
 19 25  4  0
M  END
$$$$

 Created by Python create_sdf_string function

 25 28  0  0  0  0  0  0  0  0999 V2000
   13.1533   -5.2399   21.0682 C   0  0  0  0  0  0  0  0  0  0  0  0
   10.4729   -4.0295   17.6135 C   0  0  0  0  0  0  0  0  0  0  0  0
   10.4789   -4.3641   20.9564 C   0  0  0  0  0  0  0  0  0  0  0  0
    8.7421   -5.1412   16.3650 C   0  0  0  0  0  0  0  0  0  0  0  0
   11.4353   -2.9204   17.8044 C   0  0  0  0  0  0  0  0  0  0  0  0
   11.1529   -4.3028   22.1277 C   0  0  0  0  0  0  0  0  0  0  0  0
   11.1290   -4.8502   19.8052 C   0  0  0  0  0  0  0  0  0  0  0  0
   12.4329   -4.2159   24.4224 C   0  0  0  0  0  0  0  0  0  0  0  0
    3.4740   -9.0387   16.5022 C   0  0  0  0  0  0  0  0  0  0  0  0
    6.8384   -7.9290   17.5282 N   0  0  0  0  0  0  0  0  0  0  0  0
    9.4126   -5.9853   18.4899 C   0  0  0  0  0  0  0  0  0  0  0  0
    4.2064  -10.3242   18.3302 C   0  0  0  0  0  0  0  0  0  0  0  0
    9.6599   -4.1551   16.4796 N   0  0  0  0  0  0  0  0  0  0  0  0
    7.0644   -6.4612   15.7375 N   0  0  0  0  0  0  0  0  0  0  0  0
    5.3549   -9.6322   18.3190 C   0  0  0  0  0  0  0  0  0  0  0  0
   10.3704   -4.9638   18.6510 C   0  0  0  0  0  0  0  0  0  0  0  0
    5.5935   -8.6419   17.4234 C   0  0  0  0  0  0  0  0  0  0  0  0
   13.0726   -4.6648   23.3394 O   0  0  0  0  0  0  0  0  0  0  0  0
    8.5955   -6.0705   17.3996 C   0  0  0  0  0  0  0  0  0  0  0  0
    4.6223   -8.3832   16.5030 C   0  0  0  0  0  0  0  0  0  0  0  0
   12.4690   -5.2624   19.9024 C   0  0  0  0  0  0  0  0  0  0  0  0
    3.2548   -9.9919   17.4189 C   0  0  0  0  0  0  0  0  0  0  0  0
   12.4767   -4.7393   22.1790 C   0  0  0  0  0  0  0  0  0  0  0  0
    7.8593   -5.3772   15.3569 N   0  0  0  0  0  0  0  0  0  0  0  0
    7.4412   -6.9038   16.9283 C   0  0  0  0  0  0  0  0  0  0  0  0
  1 21  4  0
  1 23  4  0
  2  5  1  0
  2 13  4  0
  2 16  4  0
  3  6  4  0
  3  7  4  0
  4 13  4  0
  4 19  4  0
  4 24  4  0
  6 23  4  0
  7 16  1  0
  7 21  4  0
  8 18  1  0
  9 20  4  0
  9 22  4  0
 10 17  1  0
 10 25  1  0
 11 16  4  0
 11 19  4  0
 12 15  4  0
 12 22  4  0
 14 24  4  0
 14 25  4  0
 15 17  4  0
 17 20  4  0
 18 23  1  0
 19 25  4  0
M  END
$$$$

 Created by Python create_sdf_string function

 25 28  0  0  0  0  0  0  0  0999 V2000
   13.1533   -5.2399   21.0682 C   0  0  0  0  0  0  0  0  0  0  0  0
   10.4729   -4.0295   17.6135 C   0  0  0  0  0  0  0  0  0  0  0  0
   10.4789   -4.3641   20.9564 C   0  0  0  0  0  0  0  0  0  0  0  0
    8.7421   -5.1412   16.3650 C   0  0  0  0  0  0  0  0  0  0  0  0
   11.4353   -2.9204   17.8044 C   0  0  0  0  0  0  0  0  0  0  0  0
   11.1529   -4.3028   22.1277 C   0  0  0  0  0  0  0  0  0  0  0  0
   11.1290   -4.8502   19.8052 C   0  0  0  0  0  0  0  0  0  0  0  0
   12.4329   -4.2159   24.4224 C   0  0  0  0  0  0  0  0  0  0  0  0
    3.4740   -9.0387   16.5022 C   0  0  0  0  0  0  0  0  0  0  0  0
    6.8384   -7.9290   17.5282 N   0  0  0  0  0  0  0  0  0  0  0  0
    9.4126   -5.9853   18.4899 C   0  0  0  0  0  0  0  0  0  0  0  0
    4.2064  -10.3242   18.3302 C   0  0  0  0  0  0  0  0  0  0  0  0
    9.6599   -4.1551   16.4796 N   0  0  0  0  0  0  0  0  0  0  0  0
    7.0644   -6.4612   15.7375 N   0  0  0  0  0  0  0  0  0  0  0  0
    5.3549   -9.6322   18.3190 C   0  0  0  0  0  0  0  0  0  0  0  0
   10.3704   -4.9638   18.6510 C   0  0  0  0  0  0  0  0  0  0  0  0
    5.5935   -8.6419   17.4234 C   0  0  0  0  0  0  0  0  0  0  0  0
   13.0726   -4.6648   23.3394 O   0  0  0  0  0  0  0  0  0  0  0  0
    8.5955   -6.0705   17.3996 C   0  0  0  0  0  0  0  0  0  0  0  0
    4.6223   -8.3832   16.5030 C   0  0  0  0  0  0  0  0  0  0  0  0
   12.4690   -5.2624   19.9024 C   0  0  0  0  0  0  0  0  0  0  0  0
    3.2548   -9.9919   17.4189 C   0  0  0  0  0  0  0  0  0  0  0  0
   12.4767   -4.7393   22.1790 C   0  0  0  0  0  0  0  0  0  0  0  0
    7.8593   -5.3772   15.3569 N   0  0  0  0  0  0  0  0  0  0  0  0
    7.4412   -6.9038   16.9283 C   0  0  0  0  0  0  0  0  0  0  0  0
  1 21  4  0
  1 23  4  0
  2  5  1  0
  2 13  4  0
  2 16  4  0
  3  6  4  0
  3  7  4  0
  4 13  4  0
  4 19  4  0
  4 24  4  0
  6 23  4  0
  7 16  1  0
  7 21  4  0
  8 18  1  0
  9 20  4  0
  9 22  4  0
 10 17  1  0
 10 25  1  0
 11 16  4  0
 11 19  4  0
 12 15  4  0
 12 22  4  0
 14 24  4  0
 14 25  4  0
 15 17  4  0
 17 20  4  0
 18 23  1  0
 19 25  4  0
M  END
$$$$

 Created by Python create_sdf_string function

 25 28  0  0  0  0  0  0  0  0999 V2000
   13.1533   -5.2399   21.0682 C   0  0  0  0  0  0  0  0  0  0  0  0
   10.4729   -4.0295   17.6135 C   0  0  0  0  0  0  0  0  0  0  0  0
   10.4789   -4.3641   20.9564 C   0  0  0  0  0  0  0  0  0  0  0  0
    8.7421   -5.1412   16.3650 C   0  0  0  0  0  0  0  0  0  0  0  0
   11.4353   -2.9204   17.8044 C   0  0  0  0  0  0  0  0  0  0  0  0
   11.1529   -4.3028   22.1277 C   0  0  0  0  0  0  0  0  0  0  0  0
   11.1290   -4.8502   19.8052 C   0  0  0  0  0  0  0  0  0  0  0  0
   12.4329   -4.2159   24.4224 C   0  0  0  0  0  0  0  0  0  0  0  0
    3.4740   -9.0387   16.5022 C   0  0  0  0  0  0  0  0  0  0  0  0
    6.8384   -7.9290   17.5282 N   0  0  0  0  0  0  0  0  0  0  0  0
    9.4126   -5.9853   18.4899 C   0  0  0  0  0  0  0  0  0  0  0  0
    4.2064  -10.3242   18.3302 C   0  0  0  0  0  0  0  0  0  0  0  0
    9.6599   -4.1551   16.4796 N   0  0  0  0  0  0  0  0  0  0  0  0
    7.0644   -6.4612   15.7375 N   0  0  0  0  0  0  0  0  0  0  0  0
    5.3549   -9.6322   18.3190 C   0  0  0  0  0  0  0  0  0  0  0  0
   10.3704   -4.9638   18.6510 C   0  0  0  0  0  0  0  0  0  0  0  0
    5.5935   -8.6419   17.4234 C   0  0  0  0  0  0  0  0  0  0  0  0
   13.0726   -4.6648   23.3394 O   0  0  0  0  0  0  0  0  0  0  0  0
    8.5955   -6.0705   17.3996 C   0  0  0  0  0  0  0  0  0  0  0  0
    4.6223   -8.3832   16.5030 C   0  0  0  0  0  0  0  0  0  0  0  0
   12.4690   -5.2624   19.9024 C   0  0  0  0  0  0  0  0  0  0  0  0
    3.2548   -9.9919   17.4189 C   0  0  0  0  0  0  0  0  0  0  0  0
   12.4767   -4.7393   22.1790 C   0  0  0  0  0  0  0  0  0  0  0  0
    7.8593   -5.3772   15.3569 N   0  0  0  0  0  0  0  0  0  0  0  0
    7.4412   -6.9038   16.9283 C   0  0  0  0  0  0  0  0  0  0  0  0
  1 21  4  0
  1 23  4  0
  2  5  1  0
  2 13  4  0
  2 16  4  0
  3  6  4  0
  3  7  4  0
  4 13  4  0
  4 19  4  0
  4 24  4  0
  6 23  4  0
  7 16  1  0
  7 21  4  0
  8 18  1  0
  9 20  4  0
  9 22  4  0
 10 17  1  0
 10 25  1  0
 11 16  4  0
 11 19  4  0
 12 15  4  0
 12 22  4  0
 14 24  4  0
 14 25  4  0
 15 17  4  0
 17 20  4  0
 18 23  1  0
 19 25  4  0
M  END
$$$$

 Created by Python create_sdf_string function

 25 28  0  0  0  0  0  0  0  0999 V2000
   13.1533   -5.2399   21.0682 C   0  0  0  0  0  0  0  0  0  0  0  0
   10.4729   -4.0295   17.6135 C   0  0  0  0  0  0  0  0  0  0  0  0
   10.4789   -4.3641   20.9564 C   0  0  0  0  0  0  0  0  0  0  0  0
    8.7421   -5.1412   16.3650 C   0  0  0  0  0  0  0  0  0  0  0  0
   11.4353   -2.9204   17.8044 C   0  0  0  0  0  0  0  0  0  0  0  0
   11.1529   -4.3028   22.1277 C   0  0  0  0  0  0  0  0  0  0  0  0
   11.1290   -4.8502   19.8052 C   0  0  0  0  0  0  0  0  0  0  0  0
   12.4329   -4.2159   24.4224 C   0  0  0  0  0  0  0  0  0  0  0  0
    3.4740   -9.0387   16.5022 C   0  0  0  0  0  0  0  0  0  0  0  0
    6.8384   -7.9290   17.5282 N   0  0  0  0  0  0  0  0  0  0  0  0
    9.4126   -5.9853   18.4899 C   0  0  0  0  0  0  0  0  0  0  0  0
    4.2064  -10.3242   18.3302 C   0  0  0  0  0  0  0  0  0  0  0  0
    9.6599   -4.1551   16.4796 N   0  0  0  0  0  0  0  0  0  0  0  0
    7.0644   -6.4612   15.7375 N   0  0  0  0  0  0  0  0  0  0  0  0
    5.3549   -9.6322   18.3190 C   0  0  0  0  0  0  0  0  0  0  0  0
   10.3704   -4.9638   18.6510 C   0  0  0  0  0  0  0  0  0  0  0  0
    5.5935   -8.6419   17.4234 C   0  0  0  0  0  0  0  0  0  0  0  0
   13.0726   -4.6648   23.3394 O   0  0  0  0  0  0  0  0  0  0  0  0
    8.5955   -6.0705   17.3996 C   0  0  0  0  0  0  0  0  0  0  0  0
    4.6223   -8.3832   16.5030 C   0  0  0  0  0  0  0  0  0  0  0  0
   12.4690   -5.2624   19.9024 C   0  0  0  0  0  0  0  0  0  0  0  0
    3.2548   -9.9919   17.4189 C   0  0  0  0  0  0  0  0  0  0  0  0
   12.4767   -4.7393   22.1790 C   0  0  0  0  0  0  0  0  0  0  0  0
    7.8593   -5.3772   15.3569 N   0  0  0  0  0  0  0  0  0  0  0  0
    7.4412   -6.9038   16.9283 C   0  0  0  0  0  0  0  0  0  0  0  0
  1 21  4  0
  1 23  4  0
  2  5  1  0
  2 13  4  0
  2 16  4  0
  3  6  4  0
  3  7  4  0
  4 13  4  0
  4 19  4  0
  4 24  4  0
  6 23  4  0
  7 16  1  0
  7 21  4  0
  8 18  1  0
  9 20  4  0
  9 22  4  0
 10 17  1  0
 10 25  1  0
 11 16  4  0
 11 19  4  0
 12 15  4  0
 12 22  4  0
 14 24  4  0
 14 25  4  0
 15 17  4  0
 17 20  4  0
 18 23  1  0
 19 25  4  0
M  END
$$$$

 Created by Python create_sdf_string function

 25 28  0  0  0  0  0  0  0  0999 V2000
   13.1533   -5.2399   21.0682 C   0  0  0  0  0  0  0  0  0  0  0  0
   10.4729   -4.0295   17.6135 C   0  0  0  0  0  0  0  0  0  0  0  0
   10.4789   -4.3641   20.9564 C   0  0  0  0  0  0  0  0  0  0  0  0
    8.7421   -5.1412   16.3650 C   0  0  0  0  0  0  0  0  0  0  0  0
   11.4353   -2.9204   17.8044 C   0  0  0  0  0  0  0  0  0  0  0  0
   11.1529   -4.3028   22.1277 C   0  0  0  0  0  0  0  0  0  0  0  0
   11.1290   -4.8502   19.8052 C   0  0  0  0  0  0  0  0  0  0  0  0
   12.4329   -4.2159   24.4224 C   0  0  0  0  0  0  0  0  0  0  0  0
    3.4740   -9.0387   16.5022 C   0  0  0  0  0  0  0  0  0  0  0  0
    6.8384   -7.9290   17.5282 N   0  0  0  0  0  0  0  0  0  0  0  0
    9.4126   -5.9853   18.4899 C   0  0  0  0  0  0  0  0  0  0  0  0
    4.2064  -10.3242   18.3302 C   0  0  0  0  0  0  0  0  0  0  0  0
    9.6599   -4.1551   16.4796 N   0  0  0  0  0  0  0  0  0  0  0  0
    7.0644   -6.4612   15.7375 N   0  0  0  0  0  0  0  0  0  0  0  0
    5.3549   -9.6322   18.3190 C   0  0  0  0  0  0  0  0  0  0  0  0
   10.3704   -4.9638   18.6510 C   0  0  0  0  0  0  0  0  0  0  0  0
    5.5935   -8.6419   17.4234 C   0  0  0  0  0  0  0  0  0  0  0  0
   13.0726   -4.6648   23.3394 O   0  0  0  0  0  0  0  0  0  0  0  0
    8.5955   -6.0705   17.3996 C   0  0  0  0  0  0  0  0  0  0  0  0
    4.6223   -8.3832   16.5030 C   0  0  0  0  0  0  0  0  0  0  0  0
   12.4690   -5.2624   19.9024 C   0  0  0  0  0  0  0  0  0  0  0  0
    3.2548   -9.9919   17.4189 C   0  0  0  0  0  0  0  0  0  0  0  0
   12.4767   -4.7393   22.1790 C   0  0  0  0  0  0  0  0  0  0  0  0
    7.8593   -5.3772   15.3569 N   0  0  0  0  0  0  0  0  0  0  0  0
    7.4412   -6.9038   16.9283 C   0  0  0  0  0  0  0  0  0  0  0  0
  1 21  4  0
  1 23  4  0
  2  5  1  0
  2 13  4  0
  2 16  4  0
  3  6  4  0
  3  7  4  0
  4 13  4  0
  4 19  4  0
  4 24  4  0
  6 23  4  0
  7 16  1  0
  7 21  4  0
  8 18  1  0
  9 20  4  0
  9 22  4  0
 10 17  1  0
 10 25  1  0
 11 16  4  0
 11 19  4  0
 12 15  4  0
 12 22  4  0
 14 24  4  0
 14 25  4  0
 15 17  4  0
 17 20  4  0
 18 23  1  0
 19 25  4  0
M  END
$$$$

 Created by Python create_sdf_string function

 25 28  0  0  0  0  0  0  0  0999 V2000
   13.1533   -5.2399   21.0682 C   0  0  0  0  0  0  0  0  0  0  0  0
   10.4729   -4.0295   17.6135 C   0  0  0  0  0  0  0  0  0  0  0  0
   10.4789   -4.3641   20.9564 C   0  0  0  0  0  0  0  0  0  0  0  0
    8.7421   -5.1412   16.3650 C   0  0  0  0  0  0  0  0  0  0  0  0
   11.4353   -2.9204   17.8044 C   0  0  0  0  0  0  0  0  0  0  0  0
   11.1529   -4.3028   22.1277 C   0  0  0  0  0  0  0  0  0  0  0  0
   11.1290   -4.8502   19.8052 C   0  0  0  0  0  0  0  0  0  0  0  0
   12.4329   -4.2159   24.4224 C   0  0  0  0  0  0  0  0  0  0  0  0
    3.4740   -9.0387   16.5022 C   0  0  0  0  0  0  0  0  0  0  0  0
    6.8384   -7.9290   17.5282 N   0  0  0  0  0  0  0  0  0  0  0  0
    9.4126   -5.9853   18.4899 C   0  0  0  0  0  0  0  0  0  0  0  0
    4.2064  -10.3242   18.3302 C   0  0  0  0  0  0  0  0  0  0  0  0
    9.6599   -4.1551   16.4796 N   0  0  0  0  0  0  0  0  0  0  0  0
    7.0644   -6.4612   15.7375 N   0  0  0  0  0  0  0  0  0  0  0  0
    5.3549   -9.6322   18.3190 C   0  0  0  0  0  0  0  0  0  0  0  0
   10.3704   -4.9638   18.6510 C   0  0  0  0  0  0  0  0  0  0  0  0
    5.5935   -8.6419   17.4234 C   0  0  0  0  0  0  0  0  0  0  0  0
   13.0726   -4.6648   23.3394 O   0  0  0  0  0  0  0  0  0  0  0  0
    8.5955   -6.0705   17.3996 C   0  0  0  0  0  0  0  0  0  0  0  0
    4.6223   -8.3832   16.5030 C   0  0  0  0  0  0  0  0  0  0  0  0
   12.4690   -5.2624   19.9024 C   0  0  0  0  0  0  0  0  0  0  0  0
    3.2548   -9.9919   17.4189 C   0  0  0  0  0  0  0  0  0  0  0  0
   12.4767   -4.7393   22.1790 C   0  0  0  0  0  0  0  0  0  0  0  0
    7.8593   -5.3772   15.3569 N   0  0  0  0  0  0  0  0  0  0  0  0
    7.4412   -6.9038   16.9283 C   0  0  0  0  0  0  0  0  0  0  0  0
  1 21  4  0
  1 23  4  0
  2  5  1  0
  2 13  4  0
  2 16  4  0
  3  6  4  0
  3  7  4  0
  4 13  4  0
  4 19  4  0
  4 24  4  0
  6 23  4  0
  7 16  1  0
  7 21  4  0
  8 18  1  0
  9 20  4  0
  9 22  4  0
 10 17  1  0
 10 25  1  0
 11 16  4  0
 11 19  4  0
 12 15  4  0
 12 22  4  0
 14 24  4  0
 14 25  4  0
 15 17  4  0
 17 20  4  0
 18 23  1  0
 19 25  4  0
M  END
$$$$

 Created by Python create_sdf_string function

 25 28  0  0  0  0  0  0  0  0999 V2000
   13.1533   -5.2399   21.0682 C   0  0  0  0  0  0  0  0  0  0  0  0
   10.4729   -4.0295   17.6135 C   0  0  0  0  0  0  0  0  0  0  0  0
   10.4789   -4.3641   20.9564 C   0  0  0  0  0  0  0  0  0  0  0  0
    8.7421   -5.1412   16.3650 C   0  0  0  0  0  0  0  0  0  0  0  0
   11.4353   -2.9204   17.8044 C   0  0  0  0  0  0  0  0  0  0  0  0
   11.1529   -4.3028   22.1277 C   0  0  0  0  0  0  0  0  0  0  0  0
   11.1290   -4.8502   19.8052 C   0  0  0  0  0  0  0  0  0  0  0  0
   12.4329   -4.2159   24.4224 C   0  0  0  0  0  0  0  0  0  0  0  0
    3.4740   -9.0387   16.5022 C   0  0  0  0  0  0  0  0  0  0  0  0
    6.8384   -7.9290   17.5282 N   0  0  0  0  0  0  0  0  0  0  0  0
    9.4126   -5.9853   18.4899 C   0  0  0  0  0  0  0  0  0  0  0  0
    4.2064  -10.3242   18.3302 C   0  0  0  0  0  0  0  0  0  0  0  0
    9.6599   -4.1551   16.4796 N   0  0  0  0  0  0  0  0  0  0  0  0
    7.0644   -6.4612   15.7375 N   0  0  0  0  0  0  0  0  0  0  0  0
    5.3549   -9.6322   18.3190 C   0  0  0  0  0  0  0  0  0  0  0  0
   10.3704   -4.9638   18.6510 C   0  0  0  0  0  0  0  0  0  0  0  0
    5.5935   -8.6419   17.4234 C   0  0  0  0  0  0  0  0  0  0  0  0
   13.0726   -4.6648   23.3394 O   0  0  0  0  0  0  0  0  0  0  0  0
    8.5955   -6.0705   17.3996 C   0  0  0  0  0  0  0  0  0  0  0  0
    4.6223   -8.3832   16.5030 C   0  0  0  0  0  0  0  0  0  0  0  0
   12.4690   -5.2624   19.9024 C   0  0  0  0  0  0  0  0  0  0  0  0
    3.2548   -9.9919   17.4189 C   0  0  0  0  0  0  0  0  0  0  0  0
   12.4767   -4.7393   22.1790 C   0  0  0  0  0  0  0  0  0  0  0  0
    7.8593   -5.3772   15.3569 N   0  0  0  0  0  0  0  0  0  0  0  0
    7.4412   -6.9038   16.9283 C   0  0  0  0  0  0  0  0  0  0  0  0
  1 21  4  0
  1 23  4  0
  2  5  1  0
  2 13  4  0
  2 16  4  0
  3  6  4  0
  3  7  4  0
  4 13  4  0
  4 19  4  0
  4 24  4  0
  6 23  4  0
  7 16  1  0
  7 21  4  0
  8 18  1  0
  9 20  4  0
  9 22  4  0
 10 17  1  0
 10 25  1  0
 11 16  4  0
 11 19  4  0
 12 15  4  0
 12 22  4  0
 14 24  4  0
 14 25  4  0
 15 17  4  0
 17 20  4  0
 18 23  1  0
 19 25  4  0
M  END
$$$$

 Created by Python create_sdf_string function

 25 28  0  0  0  0  0  0  0  0999 V2000
   13.1533   -5.2399   21.0682 C   0  0  0  0  0  0  0  0  0  0  0  0
   10.4729   -4.0295   17.6135 C   0  0  0  0  0  0  0  0  0  0  0  0
   10.4789   -4.3641   20.9564 C   0  0  0  0  0  0  0  0  0  0  0  0
    8.7421   -5.1412   16.3650 C   0  0  0  0  0  0  0  0  0  0  0  0
   11.4353   -2.9204   17.8044 C   0  0  0  0  0  0  0  0  0  0  0  0
   11.1529   -4.3028   22.1277 C   0  0  0  0  0  0  0  0  0  0  0  0
   11.1290   -4.8502   19.8052 C   0  0  0  0  0  0  0  0  0  0  0  0
   12.4329   -4.2159   24.4224 C   0  0  0  0  0  0  0  0  0  0  0  0
    3.4740   -9.0387   16.5022 C   0  0  0  0  0  0  0  0  0  0  0  0
    6.8384   -7.9290   17.5282 N   0  0  0  0  0  0  0  0  0  0  0  0
    9.4126   -5.9853   18.4899 C   0  0  0  0  0  0  0  0  0  0  0  0
    4.2064  -10.3242   18.3302 C   0  0  0  0  0  0  0  0  0  0  0  0
    9.6599   -4.1551   16.4796 N   0  0  0  0  0  0  0  0  0  0  0  0
    7.0644   -6.4612   15.7375 N   0  0  0  0  0  0  0  0  0  0  0  0
    5.3549   -9.6322   18.3190 C   0  0  0  0  0  0  0  0  0  0  0  0
   10.3704   -4.9638   18.6510 C   0  0  0  0  0  0  0  0  0  0  0  0
    5.5935   -8.6419   17.4234 C   0  0  0  0  0  0  0  0  0  0  0  0
   13.0726   -4.6648   23.3394 O   0  0  0  0  0  0  0  0  0  0  0  0
    8.5955   -6.0705   17.3996 C   0  0  0  0  0  0  0  0  0  0  0  0
    4.6223   -8.3832   16.5030 C   0  0  0  0  0  0  0  0  0  0  0  0
   12.4690   -5.2624   19.9024 C   0  0  0  0  0  0  0  0  0  0  0  0
    3.2548   -9.9919   17.4189 C   0  0  0  0  0  0  0  0  0  0  0  0
   12.4767   -4.7393   22.1790 C   0  0  0  0  0  0  0  0  0  0  0  0
    7.8593   -5.3772   15.3569 N   0  0  0  0  0  0  0  0  0  0  0  0
    7.4412   -6.9038   16.9283 C   0  0  0  0  0  0  0  0  0  0  0  0
  1 21  4  0
  1 23  4  0
  2  5  1  0
  2 13  4  0
  2 16  4  0
  3  6  4  0
  3  7  4  0
  4 13  4  0
  4 19  4  0
  4 24  4  0
  6 23  4  0
  7 16  1  0
  7 21  4  0
  8 18  1  0
  9 20  4  0
  9 22  4  0
 10 17  1  0
 10 25  1  0
 11 16  4  0
 11 19  4  0
 12 15  4  0
 12 22  4  0
 14 24  4  0
 14 25  4  0
 15 17  4  0
 17 20  4  0
 18 23  1  0
 19 25  4  0
M  END
$$$$

 Created by Python create_sdf_string function

 25 28  0  0  0  0  0  0  0  0999 V2000
   13.1533   -5.2399   21.0682 C   0  0  0  0  0  0  0  0  0  0  0  0
   10.4729   -4.0295   17.6135 C   0  0  0  0  0  0  0  0  0  0  0  0
   10.4789   -4.3641   20.9564 C   0  0  0  0  0  0  0  0  0  0  0  0
    8.7421   -5.1412   16.3650 C   0  0  0  0  0  0  0  0  0  0  0  0
   11.4353   -2.9204   17.8044 C   0  0  0  0  0  0  0  0  0  0  0  0
   11.1529   -4.3028   22.1277 C   0  0  0  0  0  0  0  0  0  0  0  0
   11.1290   -4.8502   19.8052 C   0  0  0  0  0  0  0  0  0  0  0  0
   12.4329   -4.2159   24.4224 C   0  0  0  0  0  0  0  0  0  0  0  0
    3.4740   -9.0387   16.5022 C   0  0  0  0  0  0  0  0  0  0  0  0
    6.8384   -7.9290   17.5282 N   0  0  0  0  0  0  0  0  0  0  0  0
    9.4126   -5.9853   18.4899 C   0  0  0  0  0  0  0  0  0  0  0  0
    4.2064  -10.3242   18.3302 C   0  0  0  0  0  0  0  0  0  0  0  0
    9.6599   -4.1551   16.4796 N   0  0  0  0  0  0  0  0  0  0  0  0
    7.0644   -6.4612   15.7375 N   0  0  0  0  0  0  0  0  0  0  0  0
    5.3549   -9.6322   18.3190 C   0  0  0  0  0  0  0  0  0  0  0  0
   10.3704   -4.9638   18.6510 C   0  0  0  0  0  0  0  0  0  0  0  0
    5.5935   -8.6419   17.4234 C   0  0  0  0  0  0  0  0  0  0  0  0
   13.0726   -4.6648   23.3394 O   0  0  0  0  0  0  0  0  0  0  0  0
    8.5955   -6.0705   17.3996 C   0  0  0  0  0  0  0  0  0  0  0  0
    4.6223   -8.3832   16.5030 C   0  0  0  0  0  0  0  0  0  0  0  0
   12.4690   -5.2624   19.9024 C   0  0  0  0  0  0  0  0  0  0  0  0
    3.2548   -9.9919   17.4189 C   0  0  0  0  0  0  0  0  0  0  0  0
   12.4767   -4.7393   22.1790 C   0  0  0  0  0  0  0  0  0  0  0  0
    7.8593   -5.3772   15.3569 N   0  0  0  0  0  0  0  0  0  0  0  0
    7.4412   -6.9038   16.9283 C   0  0  0  0  0  0  0  0  0  0  0  0
  1 21  4  0
  1 23  4  0
  2  5  1  0
  2 13  4  0
  2 16  4  0
  3  6  4  0
  3  7  4  0
  4 13  4  0
  4 19  4  0
  4 24  4  0
  6 23  4  0
  7 16  1  0
  7 21  4  0
  8 18  1  0
  9 20  4  0
  9 22  4  0
 10 17  1  0
 10 25  1  0
 11 16  4  0
 11 19  4  0
 12 15  4  0
 12 22  4  0
 14 24  4  0
 14 25  4  0
 15 17  4  0
 17 20  4  0
 18 23  1  0
 19 25  4  0
M  END
$$$$

 Created by Python create_sdf_string function

 25 28  0  0  0  0  0  0  0  0999 V2000
   13.1533   -5.2399   21.0682 C   0  0  0  0  0  0  0  0  0  0  0  0
   10.4729   -4.0295   17.6135 C   0  0  0  0  0  0  0  0  0  0  0  0
   10.4789   -4.3641   20.9564 C   0  0  0  0  0  0  0  0  0  0  0  0
    8.7421   -5.1412   16.3650 C   0  0  0  0  0  0  0  0  0  0  0  0
   11.4353   -2.9204   17.8044 C   0  0  0  0  0  0  0  0  0  0  0  0
   11.1529   -4.3028   22.1277 C   0  0  0  0  0  0  0  0  0  0  0  0
   11.1290   -4.8502   19.8052 C   0  0  0  0  0  0  0  0  0  0  0  0
   12.4329   -4.2159   24.4224 C   0  0  0  0  0  0  0  0  0  0  0  0
    3.4740   -9.0387   16.5022 C   0  0  0  0  0  0  0  0  0  0  0  0
    6.8384   -7.9290   17.5282 N   0  0  0  0  0  0  0  0  0  0  0  0
    9.4126   -5.9853   18.4899 C   0  0  0  0  0  0  0  0  0  0  0  0
    4.2064  -10.3242   18.3302 C   0  0  0  0  0  0  0  0  0  0  0  0
    9.6599   -4.1551   16.4796 N   0  0  0  0  0  0  0  0  0  0  0  0
    7.0644   -6.4612   15.7375 N   0  0  0  0  0  0  0  0  0  0  0  0
    5.3549   -9.6322   18.3190 C   0  0  0  0  0  0  0  0  0  0  0  0
   10.3704   -4.9638   18.6510 C   0  0  0  0  0  0  0  0  0  0  0  0
    5.5935   -8.6419   17.4234 C   0  0  0  0  0  0  0  0  0  0  0  0
   13.0726   -4.6648   23.3394 O   0  0  0  0  0  0  0  0  0  0  0  0
    8.5955   -6.0705   17.3996 C   0  0  0  0  0  0  0  0  0  0  0  0
    4.6223   -8.3832   16.5030 C   0  0  0  0  0  0  0  0  0  0  0  0
   12.4690   -5.2624   19.9024 C   0  0  0  0  0  0  0  0  0  0  0  0
    3.2548   -9.9919   17.4189 C   0  0  0  0  0  0  0  0  0  0  0  0
   12.4767   -4.7393   22.1790 C   0  0  0  0  0  0  0  0  0  0  0  0
    7.8593   -5.3772   15.3569 N   0  0  0  0  0  0  0  0  0  0  0  0
    7.4412   -6.9038   16.9283 C   0  0  0  0  0  0  0  0  0  0  0  0
  1 21  4  0
  1 23  4  0
  2  5  1  0
  2 13  4  0
  2 16  4  0
  3  6  4  0
  3  7  4  0
  4 13  4  0
  4 19  4  0
  4 24  4  0
  6 23  4  0
  7 16  1  0
  7 21  4  0
  8 18  1  0
  9 20  4  0
  9 22  4  0
 10 17  1  0
 10 25  1  0
 11 16  4  0
 11 19  4  0
 12 15  4  0
 12 22  4  0
 14 24  4  0
 14 25  4  0
 15 17  4  0
 17 20  4  0
 18 23  1  0
 19 25  4  0
M  END
$$$$

 Created by Python create_sdf_string function

 25 28  0  0  0  0  0  0  0  0999 V2000
   13.1533   -5.2399   21.0682 C   0  0  0  0  0  0  0  0  0  0  0  0
   10.4729   -4.0295   17.6135 C   0  0  0  0  0  0  0  0  0  0  0  0
   10.4789   -4.3641   20.9564 C   0  0  0  0  0  0  0  0  0  0  0  0
    8.7421   -5.1412   16.3650 C   0  0  0  0  0  0  0  0  0  0  0  0
   11.4353   -2.9204   17.8044 C   0  0  0  0  0  0  0  0  0  0  0  0
   11.1529   -4.3028   22.1277 C   0  0  0  0  0  0  0  0  0  0  0  0
   11.1290   -4.8502   19.8052 C   0  0  0  0  0  0  0  0  0  0  0  0
   12.4329   -4.2159   24.4224 C   0  0  0  0  0  0  0  0  0  0  0  0
    3.4740   -9.0387   16.5022 C   0  0  0  0  0  0  0  0  0  0  0  0
    6.8384   -7.9290   17.5282 N   0  0  0  0  0  0  0  0  0  0  0  0
    9.4126   -5.9853   18.4899 C   0  0  0  0  0  0  0  0  0  0  0  0
    4.2064  -10.3242   18.3302 C   0  0  0  0  0  0  0  0  0  0  0  0
    9.6599   -4.1551   16.4796 N   0  0  0  0  0  0  0  0  0  0  0  0
    7.0644   -6.4612   15.7375 N   0  0  0  0  0  0  0  0  0  0  0  0
    5.3549   -9.6322   18.3190 C   0  0  0  0  0  0  0  0  0  0  0  0
   10.3704   -4.9638   18.6510 C   0  0  0  0  0  0  0  0  0  0  0  0
    5.5935   -8.6419   17.4234 C   0  0  0  0  0  0  0  0  0  0  0  0
   13.0726   -4.6648   23.3394 O   0  0  0  0  0  0  0  0  0  0  0  0
    8.5955   -6.0705   17.3996 C   0  0  0  0  0  0  0  0  0  0  0  0
    4.6223   -8.3832   16.5030 C   0  0  0  0  0  0  0  0  0  0  0  0
   12.4690   -5.2624   19.9024 C   0  0  0  0  0  0  0  0  0  0  0  0
    3.2548   -9.9919   17.4189 C   0  0  0  0  0  0  0  0  0  0  0  0
   12.4767   -4.7393   22.1790 C   0  0  0  0  0  0  0  0  0  0  0  0
    7.8593   -5.3772   15.3569 N   0  0  0  0  0  0  0  0  0  0  0  0
    7.4412   -6.9038   16.9283 C   0  0  0  0  0  0  0  0  0  0  0  0
  1 21  4  0
  1 23  4  0
  2  5  1  0
  2 13  4  0
  2 16  4  0
  3  6  4  0
  3  7  4  0
  4 13  4  0
  4 19  4  0
  4 24  4  0
  6 23  4  0
  7 16  1  0
  7 21  4  0
  8 18  1  0
  9 20  4  0
  9 22  4  0
 10 17  1  0
 10 25  1  0
 11 16  4  0
 11 19  4  0
 12 15  4  0
 12 22  4  0
 14 24  4  0
 14 25  4  0
 15 17  4  0
 17 20  4  0
 18 23  1  0
 19 25  4  0
M  END
$$$$

 Created by Python create_sdf_string function

 25 28  0  0  0  0  0  0  0  0999 V2000
   13.1533   -5.2399   21.0682 C   0  0  0  0  0  0  0  0  0  0  0  0
   10.4729   -4.0295   17.6135 C   0  0  0  0  0  0  0  0  0  0  0  0
   10.4789   -4.3641   20.9564 C   0  0  0  0  0  0  0  0  0  0  0  0
    8.7421   -5.1412   16.3650 C   0  0  0  0  0  0  0  0  0  0  0  0
   11.4353   -2.9204   17.8044 C   0  0  0  0  0  0  0  0  0  0  0  0
   11.1529   -4.3028   22.1277 C   0  0  0  0  0  0  0  0  0  0  0  0
   11.1290   -4.8502   19.8052 C   0  0  0  0  0  0  0  0  0  0  0  0
   12.4329   -4.2159   24.4224 C   0  0  0  0  0  0  0  0  0  0  0  0
    3.4740   -9.0387   16.5022 C   0  0  0  0  0  0  0  0  0  0  0  0
    6.8384   -7.9290   17.5282 N   0  0  0  0  0  0  0  0  0  0  0  0
    9.4126   -5.9853   18.4899 C   0  0  0  0  0  0  0  0  0  0  0  0
    4.2064  -10.3242   18.3302 C   0  0  0  0  0  0  0  0  0  0  0  0
    9.6599   -4.1551   16.4796 N   0  0  0  0  0  0  0  0  0  0  0  0
    7.0644   -6.4612   15.7375 N   0  0  0  0  0  0  0  0  0  0  0  0
    5.3549   -9.6322   18.3190 C   0  0  0  0  0  0  0  0  0  0  0  0
   10.3704   -4.9638   18.6510 C   0  0  0  0  0  0  0  0  0  0  0  0
    5.5935   -8.6419   17.4234 C   0  0  0  0  0  0  0  0  0  0  0  0
   13.0726   -4.6648   23.3394 O   0  0  0  0  0  0  0  0  0  0  0  0
    8.5955   -6.0705   17.3996 C   0  0  0  0  0  0  0  0  0  0  0  0
    4.6223   -8.3832   16.5030 C   0  0  0  0  0  0  0  0  0  0  0  0
   12.4690   -5.2624   19.9024 C   0  0  0  0  0  0  0  0  0  0  0  0
    3.2548   -9.9919   17.4189 C   0  0  0  0  0  0  0  0  0  0  0  0
   12.4767   -4.7393   22.1790 C   0  0  0  0  0  0  0  0  0  0  0  0
    7.8593   -5.3772   15.3569 N   0  0  0  0  0  0  0  0  0  0  0  0
    7.4412   -6.9038   16.9283 C   0  0  0  0  0  0  0  0  0  0  0  0
  1 21  4  0
  1 23  4  0
  2  5  1  0
  2 13  4  0
  2 16  4  0
  3  6  4  0
  3  7  4  0
  4 13  4  0
  4 19  4  0
  4 24  4  0
  6 23  4  0
  7 16  1  0
  7 21  4  0
  8 18  1  0
  9 20  4  0
  9 22  4  0
 10 17  1  0
 10 25  1  0
 11 16  4  0
 11 19  4  0
 12 15  4  0
 12 22  4  0
 14 24  4  0
 14 25  4  0
 15 17  4  0
 17 20  4  0
 18 23  1  0
 19 25  4  0
M  END
$$$$

 Created by Python create_sdf_string function

 25 28  0  0  0  0  0  0  0  0999 V2000
   13.1533   -5.2399   21.0682 C   0  0  0  0  0  0  0  0  0  0  0  0
   10.4729   -4.0295   17.6135 C   0  0  0  0  0  0  0  0  0  0  0  0
   10.4789   -4.3641   20.9564 C   0  0  0  0  0  0  0  0  0  0  0  0
    8.7421   -5.1412   16.3650 C   0  0  0  0  0  0  0  0  0  0  0  0
   11.4353   -2.9204   17.8044 C   0  0  0  0  0  0  0  0  0  0  0  0
   11.1529   -4.3028   22.1277 C   0  0  0  0  0  0  0  0  0  0  0  0
   11.1290   -4.8502   19.8052 C   0  0  0  0  0  0  0  0  0  0  0  0
   12.4329   -4.2159   24.4224 C   0  0  0  0  0  0  0  0  0  0  0  0
    3.4740   -9.0387   16.5022 C   0  0  0  0  0  0  0  0  0  0  0  0
    6.8384   -7.9290   17.5282 N   0  0  0  0  0  0  0  0  0  0  0  0
    9.4126   -5.9853   18.4899 C   0  0  0  0  0  0  0  0  0  0  0  0
    4.2064  -10.3242   18.3302 C   0  0  0  0  0  0  0  0  0  0  0  0
    9.6599   -4.1551   16.4796 N   0  0  0  0  0  0  0  0  0  0  0  0
    7.0644   -6.4612   15.7375 N   0  0  0  0  0  0  0  0  0  0  0  0
    5.3549   -9.6322   18.3190 C   0  0  0  0  0  0  0  0  0  0  0  0
   10.3704   -4.9638   18.6510 C   0  0  0  0  0  0  0  0  0  0  0  0
    5.5935   -8.6419   17.4234 C   0  0  0  0  0  0  0  0  0  0  0  0
   13.0726   -4.6648   23.3394 O   0  0  0  0  0  0  0  0  0  0  0  0
    8.5955   -6.0705   17.3996 C   0  0  0  0  0  0  0  0  0  0  0  0
    4.6223   -8.3832   16.5030 C   0  0  0  0  0  0  0  0  0  0  0  0
   12.4690   -5.2624   19.9024 C   0  0  0  0  0  0  0  0  0  0  0  0
    3.2548   -9.9919   17.4189 C   0  0  0  0  0  0  0  0  0  0  0  0
   12.4767   -4.7393   22.1790 C   0  0  0  0  0  0  0  0  0  0  0  0
    7.8593   -5.3772   15.3569 N   0  0  0  0  0  0  0  0  0  0  0  0
    7.4412   -6.9038   16.9283 C   0  0  0  0  0  0  0  0  0  0  0  0
  1 21  4  0
  1 23  4  0
  2  5  1  0
  2 13  4  0
  2 16  4  0
  3  6  4  0
  3  7  4  0
  4 13  4  0
  4 19  4  0
  4 24  4  0
  6 23  4  0
  7 16  1  0
  7 21  4  0
  8 18  1  0
  9 20  4  0
  9 22  4  0
 10 17  1  0
 10 25  1  0
 11 16  4  0
 11 19  4  0
 12 15  4  0
 12 22  4  0
 14 24  4  0
 14 25  4  0
 15 17  4  0
 17 20  4  0
 18 23  1  0
 19 25  4  0
M  END
$$$$

 Created by Python create_sdf_string function

 25 28  0  0  0  0  0  0  0  0999 V2000
   13.1533   -5.2399   21.0682 C   0  0  0  0  0  0  0  0  0  0  0  0
   10.4729   -4.0295   17.6135 C   0  0  0  0  0  0  0  0  0  0  0  0
   10.4789   -4.3641   20.9564 C   0  0  0  0  0  0  0  0  0  0  0  0
    8.7421   -5.1412   16.3650 C   0  0  0  0  0  0  0  0  0  0  0  0
   11.4353   -2.9204   17.8044 C   0  0  0  0  0  0  0  0  0  0  0  0
   11.1529   -4.3028   22.1277 C   0  0  0  0  0  0  0  0  0  0  0  0
   11.1290   -4.8502   19.8052 C   0  0  0  0  0  0  0  0  0  0  0  0
   12.4329   -4.2159   24.4224 C   0  0  0  0  0  0  0  0  0  0  0  0
    3.4740   -9.0387   16.5022 C   0  0  0  0  0  0  0  0  0  0  0  0
    6.8384   -7.9290   17.5282 N   0  0  0  0  0  0  0  0  0  0  0  0
    9.4126   -5.9853   18.4899 C   0  0  0  0  0  0  0  0  0  0  0  0
    4.2064  -10.3242   18.3302 C   0  0  0  0  0  0  0  0  0  0  0  0
    9.6599   -4.1551   16.4796 N   0  0  0  0  0  0  0  0  0  0  0  0
    7.0644   -6.4612   15.7375 N   0  0  0  0  0  0  0  0  0  0  0  0
    5.3549   -9.6322   18.3190 C   0  0  0  0  0  0  0  0  0  0  0  0
   10.3704   -4.9638   18.6510 C   0  0  0  0  0  0  0  0  0  0  0  0
    5.5935   -8.6419   17.4234 C   0  0  0  0  0  0  0  0  0  0  0  0
   13.0726   -4.6648   23.3394 O   0  0  0  0  0  0  0  0  0  0  0  0
    8.5955   -6.0705   17.3996 C   0  0  0  0  0  0  0  0  0  0  0  0
    4.6223   -8.3832   16.5030 C   0  0  0  0  0  0  0  0  0  0  0  0
   12.4690   -5.2624   19.9024 C   0  0  0  0  0  0  0  0  0  0  0  0
    3.2548   -9.9919   17.4189 C   0  0  0  0  0  0  0  0  0  0  0  0
   12.4767   -4.7393   22.1790 C   0  0  0  0  0  0  0  0  0  0  0  0
    7.8593   -5.3772   15.3569 N   0  0  0  0  0  0  0  0  0  0  0  0
    7.4412   -6.9038   16.9283 C   0  0  0  0  0  0  0  0  0  0  0  0
  1 21  4  0
  1 23  4  0
  2  5  1  0
  2 13  4  0
  2 16  4  0
  3  6  4  0
  3  7  4  0
  4 13  4  0
  4 19  4  0
  4 24  4  0
  6 23  4  0
  7 16  1  0
  7 21  4  0
  8 18  1  0
  9 20  4  0
  9 22  4  0
 10 17  1  0
 10 25  1  0
 11 16  4  0
 11 19  4  0
 12 15  4  0
 12 22  4  0
 14 24  4  0
 14 25  4  0
 15 17  4  0
 17 20  4  0
 18 23  1  0
 19 25  4  0
M  END
$$$$

 Created by Python create_sdf_string function

 25 28  0  0  0  0  0  0  0  0999 V2000
   13.1533   -5.2399   21.0682 C   0  0  0  0  0  0  0  0  0  0  0  0
   10.4729   -4.0295   17.6135 C   0  0  0  0  0  0  0  0  0  0  0  0
   10.4789   -4.3641   20.9564 C   0  0  0  0  0  0  0  0  0  0  0  0
    8.7421   -5.1412   16.3650 C   0  0  0  0  0  0  0  0  0  0  0  0
   11.4353   -2.9204   17.8044 C   0  0  0  0  0  0  0  0  0  0  0  0
   11.1529   -4.3028   22.1277 C   0  0  0  0  0  0  0  0  0  0  0  0
   11.1290   -4.8502   19.8052 C   0  0  0  0  0  0  0  0  0  0  0  0
   12.4329   -4.2159   24.4224 C   0  0  0  0  0  0  0  0  0  0  0  0
    3.4740   -9.0387   16.5022 C   0  0  0  0  0  0  0  0  0  0  0  0
    6.8384   -7.9290   17.5282 N   0  0  0  0  0  0  0  0  0  0  0  0
    9.4126   -5.9853   18.4899 C   0  0  0  0  0  0  0  0  0  0  0  0
    4.2064  -10.3242   18.3302 C   0  0  0  0  0  0  0  0  0  0  0  0
    9.6599   -4.1551   16.4796 N   0  0  0  0  0  0  0  0  0  0  0  0
    7.0644   -6.4612   15.7375 N   0  0  0  0  0  0  0  0  0  0  0  0
    5.3549   -9.6322   18.3190 C   0  0  0  0  0  0  0  0  0  0  0  0
   10.3704   -4.9638   18.6510 C   0  0  0  0  0  0  0  0  0  0  0  0
    5.5935   -8.6419   17.4234 C   0  0  0  0  0  0  0  0  0  0  0  0
   13.0726   -4.6648   23.3394 O   0  0  0  0  0  0  0  0  0  0  0  0
    8.5955   -6.0705   17.3996 C   0  0  0  0  0  0  0  0  0  0  0  0
    4.6223   -8.3832   16.5030 C   0  0  0  0  0  0  0  0  0  0  0  0
   12.4690   -5.2624   19.9024 C   0  0  0  0  0  0  0  0  0  0  0  0
    3.2548   -9.9919   17.4189 C   0  0  0  0  0  0  0  0  0  0  0  0
   12.4767   -4.7393   22.1790 C   0  0  0  0  0  0  0  0  0  0  0  0
    7.8593   -5.3772   15.3569 N   0  0  0  0  0  0  0  0  0  0  0  0
    7.4412   -6.9038   16.9283 C   0  0  0  0  0  0  0  0  0  0  0  0
  1 21  4  0
  1 23  4  0
  2  5  1  0
  2 13  4  0
  2 16  4  0
  3  6  4  0
  3  7  4  0
  4 13  4  0
  4 19  4  0
  4 24  4  0
  6 23  4  0
  7 16  1  0
  7 21  4  0
  8 18  1  0
  9 20  4  0
  9 22  4  0
 10 17  1  0
 10 25  1  0
 11 16  4  0
 11 19  4  0
 12 15  4  0
 12 22  4  0
 14 24  4  0
 14 25  4  0
 15 17  4  0
 17 20  4  0
 18 23  1  0
 19 25  4  0
M  END
$$$$

 Created by Python create_sdf_string function

 25 28  0  0  0  0  0  0  0  0999 V2000
   13.1533   -5.2399   21.0682 C   0  0  0  0  0  0  0  0  0  0  0  0
   10.4729   -4.0295   17.6135 C   0  0  0  0  0  0  0  0  0  0  0  0
   10.4789   -4.3641   20.9564 C   0  0  0  0  0  0  0  0  0  0  0  0
    8.7421   -5.1412   16.3650 C   0  0  0  0  0  0  0  0  0  0  0  0
   11.4353   -2.9204   17.8044 C   0  0  0  0  0  0  0  0  0  0  0  0
   11.1529   -4.3028   22.1277 C   0  0  0  0  0  0  0  0  0  0  0  0
   11.1290   -4.8502   19.8052 C   0  0  0  0  0  0  0  0  0  0  0  0
   12.4329   -4.2159   24.4224 C   0  0  0  0  0  0  0  0  0  0  0  0
    3.4740   -9.0387   16.5022 C   0  0  0  0  0  0  0  0  0  0  0  0
    6.8384   -7.9290   17.5282 N   0  0  0  0  0  0  0  0  0  0  0  0
    9.4126   -5.9853   18.4899 C   0  0  0  0  0  0  0  0  0  0  0  0
    4.2064  -10.3242   18.3302 C   0  0  0  0  0  0  0  0  0  0  0  0
    9.6599   -4.1551   16.4796 N   0  0  0  0  0  0  0  0  0  0  0  0
    7.0644   -6.4612   15.7375 N   0  0  0  0  0  0  0  0  0  0  0  0
    5.3549   -9.6322   18.3190 C   0  0  0  0  0  0  0  0  0  0  0  0
   10.3704   -4.9638   18.6510 C   0  0  0  0  0  0  0  0  0  0  0  0
    5.5935   -8.6419   17.4234 C   0  0  0  0  0  0  0  0  0  0  0  0
   13.0726   -4.6648   23.3394 O   0  0  0  0  0  0  0  0  0  0  0  0
    8.5955   -6.0705   17.3996 C   0  0  0  0  0  0  0  0  0  0  0  0
    4.6223   -8.3832   16.5030 C   0  0  0  0  0  0  0  0  0  0  0  0
   12.4690   -5.2624   19.9024 C   0  0  0  0  0  0  0  0  0  0  0  0
    3.2548   -9.9919   17.4189 C   0  0  0  0  0  0  0  0  0  0  0  0
   12.4767   -4.7393   22.1790 C   0  0  0  0  0  0  0  0  0  0  0  0
    7.8593   -5.3772   15.3569 N   0  0  0  0  0  0  0  0  0  0  0  0
    7.4412   -6.9038   16.9283 C   0  0  0  0  0  0  0  0  0  0  0  0
  1 21  4  0
  1 23  4  0
  2  5  1  0
  2 13  4  0
  2 16  4  0
  3  6  4  0
  3  7  4  0
  4 13  4  0
  4 19  4  0
  4 24  4  0
  6 23  4  0
  7 16  1  0
  7 21  4  0
  8 18  1  0
  9 20  4  0
  9 22  4  0
 10 17  1  0
 10 25  1  0
 11 16  4  0
 11 19  4  0
 12 15  4  0
 12 22  4  0
 14 24  4  0
 14 25  4  0
 15 17  4  0
 17 20  4  0
 18 23  1  0
 19 25  4  0
M  END
$$$$

 Created by Python create_sdf_string function

 25 28  0  0  0  0  0  0  0  0999 V2000
   13.1533   -5.2399   21.0682 C   0  0  0  0  0  0  0  0  0  0  0  0
   10.4729   -4.0295   17.6135 C   0  0  0  0  0  0  0  0  0  0  0  0
   10.4789   -4.3641   20.9564 C   0  0  0  0  0  0  0  0  0  0  0  0
    8.7421   -5.1412   16.3650 C   0  0  0  0  0  0  0  0  0  0  0  0
   11.4353   -2.9204   17.8044 C   0  0  0  0  0  0  0  0  0  0  0  0
   11.1529   -4.3028   22.1277 C   0  0  0  0  0  0  0  0  0  0  0  0
   11.1290   -4.8502   19.8052 C   0  0  0  0  0  0  0  0  0  0  0  0
   12.4329   -4.2159   24.4224 C   0  0  0  0  0  0  0  0  0  0  0  0
    3.4740   -9.0387   16.5022 C   0  0  0  0  0  0  0  0  0  0  0  0
    6.8384   -7.9290   17.5282 N   0  0  0  0  0  0  0  0  0  0  0  0
    9.4126   -5.9853   18.4899 C   0  0  0  0  0  0  0  0  0  0  0  0
    4.2064  -10.3242   18.3302 C   0  0  0  0  0  0  0  0  0  0  0  0
    9.6599   -4.1551   16.4796 N   0  0  0  0  0  0  0  0  0  0  0  0
    7.0644   -6.4612   15.7375 N   0  0  0  0  0  0  0  0  0  0  0  0
    5.3549   -9.6322   18.3190 C   0  0  0  0  0  0  0  0  0  0  0  0
   10.3704   -4.9638   18.6510 C   0  0  0  0  0  0  0  0  0  0  0  0
    5.5935   -8.6419   17.4234 C   0  0  0  0  0  0  0  0  0  0  0  0
   13.0726   -4.6648   23.3394 O   0  0  0  0  0  0  0  0  0  0  0  0
    8.5955   -6.0705   17.3996 C   0  0  0  0  0  0  0  0  0  0  0  0
    4.6223   -8.3832   16.5030 C   0  0  0  0  0  0  0  0  0  0  0  0
   12.4690   -5.2624   19.9024 C   0  0  0  0  0  0  0  0  0  0  0  0
    3.2548   -9.9919   17.4189 C   0  0  0  0  0  0  0  0  0  0  0  0
   12.4767   -4.7393   22.1790 C   0  0  0  0  0  0  0  0  0  0  0  0
    7.8593   -5.3772   15.3569 N   0  0  0  0  0  0  0  0  0  0  0  0
    7.4412   -6.9038   16.9283 C   0  0  0  0  0  0  0  0  0  0  0  0
  1 21  4  0
  1 23  4  0
  2  5  1  0
  2 13  4  0
  2 16  4  0
  3  6  4  0
  3  7  4  0
  4 13  4  0
  4 19  4  0
  4 24  4  0
  6 23  4  0
  7 16  1  0
  7 21  4  0
  8 18  1  0
  9 20  4  0
  9 22  4  0
 10 17  1  0
 10 25  1  0
 11 16  4  0
 11 19  4  0
 12 15  4  0
 12 22  4  0
 14 24  4  0
 14 25  4  0
 15 17  4  0
 17 20  4  0
 18 23  1  0
 19 25  4  0
M  END
$$$$

 Created by Python create_sdf_string function

 25 28  0  0  0  0  0  0  0  0999 V2000
   13.1533   -5.2399   21.0682 C   0  0  0  0  0  0  0  0  0  0  0  0
   10.4729   -4.0295   17.6135 C   0  0  0  0  0  0  0  0  0  0  0  0
   10.4789   -4.3641   20.9564 C   0  0  0  0  0  0  0  0  0  0  0  0
    8.7421   -5.1412   16.3650 C   0  0  0  0  0  0  0  0  0  0  0  0
   11.4353   -2.9204   17.8044 C   0  0  0  0  0  0  0  0  0  0  0  0
   11.1529   -4.3028   22.1277 C   0  0  0  0  0  0  0  0  0  0  0  0
   11.1290   -4.8502   19.8052 C   0  0  0  0  0  0  0  0  0  0  0  0
   12.4329   -4.2159   24.4224 C   0  0  0  0  0  0  0  0  0  0  0  0
    3.4740   -9.0387   16.5022 C   0  0  0  0  0  0  0  0  0  0  0  0
    6.8384   -7.9290   17.5282 N   0  0  0  0  0  0  0  0  0  0  0  0
    9.4126   -5.9853   18.4899 C   0  0  0  0  0  0  0  0  0  0  0  0
    4.2064  -10.3242   18.3302 C   0  0  0  0  0  0  0  0  0  0  0  0
    9.6599   -4.1551   16.4796 N   0  0  0  0  0  0  0  0  0  0  0  0
    7.0644   -6.4612   15.7375 N   0  0  0  0  0  0  0  0  0  0  0  0
    5.3549   -9.6322   18.3190 C   0  0  0  0  0  0  0  0  0  0  0  0
   10.3704   -4.9638   18.6510 C   0  0  0  0  0  0  0  0  0  0  0  0
    5.5935   -8.6419   17.4234 C   0  0  0  0  0  0  0  0  0  0  0  0
   13.0726   -4.6648   23.3394 O   0  0  0  0  0  0  0  0  0  0  0  0
    8.5955   -6.0705   17.3996 C   0  0  0  0  0  0  0  0  0  0  0  0
    4.6223   -8.3832   16.5030 C   0  0  0  0  0  0  0  0  0  0  0  0
   12.4690   -5.2624   19.9024 C   0  0  0  0  0  0  0  0  0  0  0  0
    3.2548   -9.9919   17.4189 C   0  0  0  0  0  0  0  0  0  0  0  0
   12.4767   -4.7393   22.1790 C   0  0  0  0  0  0  0  0  0  0  0  0
    7.8593   -5.3772   15.3569 N   0  0  0  0  0  0  0  0  0  0  0  0
    7.4412   -6.9038   16.9283 C   0  0  0  0  0  0  0  0  0  0  0  0
  1 21  4  0
  1 23  4  0
  2  5  1  0
  2 13  4  0
  2 16  4  0
  3  6  4  0
  3  7  4  0
  4 13  4  0
  4 19  4  0
  4 24  4  0
  6 23  4  0
  7 16  1  0
  7 21  4  0
  8 18  1  0
  9 20  4  0
  9 22  4  0
 10 17  1  0
 10 25  1  0
 11 16  4  0
 11 19  4  0
 12 15  4  0
 12 22  4  0
 14 24  4  0
 14 25  4  0
 15 17  4  0
 17 20  4  0
 18 23  1  0
 19 25  4  0
M  END
$$$$

 Created by Python create_sdf_string function

 25 28  0  0  0  0  0  0  0  0999 V2000
   13.1533   -5.2399   21.0682 C   0  0  0  0  0  0  0  0  0  0  0  0
   10.4729   -4.0295   17.6135 C   0  0  0  0  0  0  0  0  0  0  0  0
   10.4789   -4.3641   20.9564 C   0  0  0  0  0  0  0  0  0  0  0  0
    8.7421   -5.1412   16.3650 C   0  0  0  0  0  0  0  0  0  0  0  0
   11.4353   -2.9204   17.8044 C   0  0  0  0  0  0  0  0  0  0  0  0
   11.1529   -4.3028   22.1277 C   0  0  0  0  0  0  0  0  0  0  0  0
   11.1290   -4.8502   19.8052 C   0  0  0  0  0  0  0  0  0  0  0  0
   12.4329   -4.2159   24.4224 C   0  0  0  0  0  0  0  0  0  0  0  0
    3.4740   -9.0387   16.5022 C   0  0  0  0  0  0  0  0  0  0  0  0
    6.8384   -7.9290   17.5282 N   0  0  0  0  0  0  0  0  0  0  0  0
    9.4126   -5.9853   18.4899 C   0  0  0  0  0  0  0  0  0  0  0  0
    4.2064  -10.3242   18.3302 C   0  0  0  0  0  0  0  0  0  0  0  0
    9.6599   -4.1551   16.4796 N   0  0  0  0  0  0  0  0  0  0  0  0
    7.0644   -6.4612   15.7375 N   0  0  0  0  0  0  0  0  0  0  0  0
    5.3549   -9.6322   18.3190 C   0  0  0  0  0  0  0  0  0  0  0  0
   10.3704   -4.9638   18.6510 C   0  0  0  0  0  0  0  0  0  0  0  0
    5.5935   -8.6419   17.4234 C   0  0  0  0  0  0  0  0  0  0  0  0
   13.0726   -4.6648   23.3394 O   0  0  0  0  0  0  0  0  0  0  0  0
    8.5955   -6.0705   17.3996 C   0  0  0  0  0  0  0  0  0  0  0  0
    4.6223   -8.3832   16.5030 C   0  0  0  0  0  0  0  0  0  0  0  0
   12.4690   -5.2624   19.9024 C   0  0  0  0  0  0  0  0  0  0  0  0
    3.2548   -9.9919   17.4189 C   0  0  0  0  0  0  0  0  0  0  0  0
   12.4767   -4.7393   22.1790 C   0  0  0  0  0  0  0  0  0  0  0  0
    7.8593   -5.3772   15.3569 N   0  0  0  0  0  0  0  0  0  0  0  0
    7.4412   -6.9038   16.9283 C   0  0  0  0  0  0  0  0  0  0  0  0
  1 21  4  0
  1 23  4  0
  2  5  1  0
  2 13  4  0
  2 16  4  0
  3  6  4  0
  3  7  4  0
  4 13  4  0
  4 19  4  0
  4 24  4  0
  6 23  4  0
  7 16  1  0
  7 21  4  0
  8 18  1  0
  9 20  4  0
  9 22  4  0
 10 17  1  0
 10 25  1  0
 11 16  4  0
 11 19  4  0
 12 15  4  0
 12 22  4  0
 14 24  4  0
 14 25  4  0
 15 17  4  0
 17 20  4  0
 18 23  1  0
 19 25  4  0
M  END
$$$$

 Created by Python create_sdf_string function

 25 28  0  0  0  0  0  0  0  0999 V2000
   13.1533   -5.2399   21.0682 C   0  0  0  0  0  0  0  0  0  0  0  0
   10.4729   -4.0295   17.6135 C   0  0  0  0  0  0  0  0  0  0  0  0
   10.4789   -4.3641   20.9564 C   0  0  0  0  0  0  0  0  0  0  0  0
    8.7421   -5.1412   16.3650 C   0  0  0  0  0  0  0  0  0  0  0  0
   11.4353   -2.9204   17.8044 C   0  0  0  0  0  0  0  0  0  0  0  0
   11.1529   -4.3028   22.1277 C   0  0  0  0  0  0  0  0  0  0  0  0
   11.1290   -4.8502   19.8052 C   0  0  0  0  0  0  0  0  0  0  0  0
   12.4329   -4.2159   24.4224 C   0  0  0  0  0  0  0  0  0  0  0  0
    3.4740   -9.0387   16.5022 C   0  0  0  0  0  0  0  0  0  0  0  0
    6.8384   -7.9290   17.5282 N   0  0  0  0  0  0  0  0  0  0  0  0
    9.4126   -5.9853   18.4899 C   0  0  0  0  0  0  0  0  0  0  0  0
    4.2064  -10.3242   18.3302 C   0  0  0  0  0  0  0  0  0  0  0  0
    9.6599   -4.1551   16.4796 N   0  0  0  0  0  0  0  0  0  0  0  0
    7.0644   -6.4612   15.7375 N   0  0  0  0  0  0  0  0  0  0  0  0
    5.3549   -9.6322   18.3190 C   0  0  0  0  0  0  0  0  0  0  0  0
   10.3704   -4.9638   18.6510 C   0  0  0  0  0  0  0  0  0  0  0  0
    5.5935   -8.6419   17.4234 C   0  0  0  0  0  0  0  0  0  0  0  0
   13.0726   -4.6648   23.3394 O   0  0  0  0  0  0  0  0  0  0  0  0
    8.5955   -6.0705   17.3996 C   0  0  0  0  0  0  0  0  0  0  0  0
    4.6223   -8.3832   16.5030 C   0  0  0  0  0  0  0  0  0  0  0  0
   12.4690   -5.2624   19.9024 C   0  0  0  0  0  0  0  0  0  0  0  0
    3.2548   -9.9919   17.4189 C   0  0  0  0  0  0  0  0  0  0  0  0
   12.4767   -4.7393   22.1790 C   0  0  0  0  0  0  0  0  0  0  0  0
    7.8593   -5.3772   15.3569 N   0  0  0  0  0  0  0  0  0  0  0  0
    7.4412   -6.9038   16.9283 C   0  0  0  0  0  0  0  0  0  0  0  0
  1 21  4  0
  1 23  4  0
  2  5  1  0
  2 13  4  0
  2 16  4  0
  3  6  4  0
  3  7  4  0
  4 13  4  0
  4 19  4  0
  4 24  4  0
  6 23  4  0
  7 16  1  0
  7 21  4  0
  8 18  1  0
  9 20  4  0
  9 22  4  0
 10 17  1  0
 10 25  1  0
 11 16  4  0
 11 19  4  0
 12 15  4  0
 12 22  4  0
 14 24  4  0
 14 25  4  0
 15 17  4  0
 17 20  4  0
 18 23  1  0
 19 25  4  0
M  END
$$$$

 Created by Python create_sdf_string function

 25 28  0  0  0  0  0  0  0  0999 V2000
   13.1533   -5.2399   21.0682 C   0  0  0  0  0  0  0  0  0  0  0  0
   10.4729   -4.0295   17.6135 C   0  0  0  0  0  0  0  0  0  0  0  0
   10.4789   -4.3641   20.9564 C   0  0  0  0  0  0  0  0  0  0  0  0
    8.7421   -5.1412   16.3650 C   0  0  0  0  0  0  0  0  0  0  0  0
   11.4353   -2.9204   17.8044 C   0  0  0  0  0  0  0  0  0  0  0  0
   11.1529   -4.3028   22.1277 C   0  0  0  0  0  0  0  0  0  0  0  0
   11.1290   -4.8502   19.8052 C   0  0  0  0  0  0  0  0  0  0  0  0
   12.4329   -4.2159   24.4224 C   0  0  0  0  0  0  0  0  0  0  0  0
    3.4740   -9.0387   16.5022 C   0  0  0  0  0  0  0  0  0  0  0  0
    6.8384   -7.9290   17.5282 N   0  0  0  0  0  0  0  0  0  0  0  0
    9.4126   -5.9853   18.4899 C   0  0  0  0  0  0  0  0  0  0  0  0
    4.2064  -10.3242   18.3302 C   0  0  0  0  0  0  0  0  0  0  0  0
    9.6599   -4.1551   16.4796 N   0  0  0  0  0  0  0  0  0  0  0  0
    7.0644   -6.4612   15.7375 N   0  0  0  0  0  0  0  0  0  0  0  0
    5.3549   -9.6322   18.3190 C   0  0  0  0  0  0  0  0  0  0  0  0
   10.3704   -4.9638   18.6510 C   0  0  0  0  0  0  0  0  0  0  0  0
    5.5935   -8.6419   17.4234 C   0  0  0  0  0  0  0  0  0  0  0  0
   13.0726   -4.6648   23.3394 O   0  0  0  0  0  0  0  0  0  0  0  0
    8.5955   -6.0705   17.3996 C   0  0  0  0  0  0  0  0  0  0  0  0
    4.6223   -8.3832   16.5030 C   0  0  0  0  0  0  0  0  0  0  0  0
   12.4690   -5.2624   19.9024 C   0  0  0  0  0  0  0  0  0  0  0  0
    3.2548   -9.9919   17.4189 C   0  0  0  0  0  0  0  0  0  0  0  0
   12.4767   -4.7393   22.1790 C   0  0  0  0  0  0  0  0  0  0  0  0
    7.8593   -5.3772   15.3569 N   0  0  0  0  0  0  0  0  0  0  0  0
    7.4412   -6.9038   16.9283 C   0  0  0  0  0  0  0  0  0  0  0  0
  1 21  4  0
  1 23  4  0
  2  5  1  0
  2 13  4  0
  2 16  4  0
  3  6  4  0
  3  7  4  0
  4 13  4  0
  4 19  4  0
  4 24  4  0
  6 23  4  0
  7 16  1  0
  7 21  4  0
  8 18  1  0
  9 20  4  0
  9 22  4  0
 10 17  1  0
 10 25  1  0
 11 16  4  0
 11 19  4  0
 12 15  4  0
 12 22  4  0
 14 24  4  0
 14 25  4  0
 15 17  4  0
 17 20  4  0
 18 23  1  0
 19 25  4  0
M  END
$$$$

 Created by Python create_sdf_string function

 25 28  0  0  0  0  0  0  0  0999 V2000
   13.1533   -5.2399   21.0682 C   0  0  0  0  0  0  0  0  0  0  0  0
   10.4729   -4.0295   17.6135 C   0  0  0  0  0  0  0  0  0  0  0  0
   10.4789   -4.3641   20.9564 C   0  0  0  0  0  0  0  0  0  0  0  0
    8.7421   -5.1412   16.3650 C   0  0  0  0  0  0  0  0  0  0  0  0
   11.4353   -2.9204   17.8044 C   0  0  0  0  0  0  0  0  0  0  0  0
   11.1529   -4.3028   22.1277 C   0  0  0  0  0  0  0  0  0  0  0  0
   11.1290   -4.8502   19.8052 C   0  0  0  0  0  0  0  0  0  0  0  0
   12.4329   -4.2159   24.4224 C   0  0  0  0  0  0  0  0  0  0  0  0
    3.4740   -9.0387   16.5022 C   0  0  0  0  0  0  0  0  0  0  0  0
    6.8384   -7.9290   17.5282 N   0  0  0  0  0  0  0  0  0  0  0  0
    9.4126   -5.9853   18.4899 C   0  0  0  0  0  0  0  0  0  0  0  0
    4.2064  -10.3242   18.3302 C   0  0  0  0  0  0  0  0  0  0  0  0
    9.6599   -4.1551   16.4796 N   0  0  0  0  0  0  0  0  0  0  0  0
    7.0644   -6.4612   15.7375 N   0  0  0  0  0  0  0  0  0  0  0  0
    5.3549   -9.6322   18.3190 C   0  0  0  0  0  0  0  0  0  0  0  0
   10.3704   -4.9638   18.6510 C   0  0  0  0  0  0  0  0  0  0  0  0
    5.5935   -8.6419   17.4234 C   0  0  0  0  0  0  0  0  0  0  0  0
   13.0726   -4.6648   23.3394 O   0  0  0  0  0  0  0  0  0  0  0  0
    8.5955   -6.0705   17.3996 C   0  0  0  0  0  0  0  0  0  0  0  0
    4.6223   -8.3832   16.5030 C   0  0  0  0  0  0  0  0  0  0  0  0
   12.4690   -5.2624   19.9024 C   0  0  0  0  0  0  0  0  0  0  0  0
    3.2548   -9.9919   17.4189 C   0  0  0  0  0  0  0  0  0  0  0  0
   12.4767   -4.7393   22.1790 C   0  0  0  0  0  0  0  0  0  0  0  0
    7.8593   -5.3772   15.3569 N   0  0  0  0  0  0  0  0  0  0  0  0
    7.4412   -6.9038   16.9283 C   0  0  0  0  0  0  0  0  0  0  0  0
  1 21  4  0
  1 23  4  0
  2  5  1  0
  2 13  4  0
  2 16  4  0
  3  6  4  0
  3  7  4  0
  4 13  4  0
  4 19  4  0
  4 24  4  0
  6 23  4  0
  7 16  1  0
  7 21  4  0
  8 18  1  0
  9 20  4  0
  9 22  4  0
 10 17  1  0
 10 25  1  0
 11 16  4  0
 11 19  4  0
 12 15  4  0
 12 22  4  0
 14 24  4  0
 14 25  4  0
 15 17  4  0
 17 20  4  0
 18 23  1  0
 19 25  4  0
M  END
$$$$

 Created by Python create_sdf_string function

 25 28  0  0  0  0  0  0  0  0999 V2000
   13.1533   -5.2399   21.0682 C   0  0  0  0  0  0  0  0  0  0  0  0
   10.4729   -4.0295   17.6135 C   0  0  0  0  0  0  0  0  0  0  0  0
   10.4789   -4.3641   20.9564 C   0  0  0  0  0  0  0  0  0  0  0  0
    8.7421   -5.1412   16.3650 C   0  0  0  0  0  0  0  0  0  0  0  0
   11.4353   -2.9204   17.8044 C   0  0  0  0  0  0  0  0  0  0  0  0
   11.1529   -4.3028   22.1277 C   0  0  0  0  0  0  0  0  0  0  0  0
   11.1290   -4.8502   19.8052 C   0  0  0  0  0  0  0  0  0  0  0  0
   12.4329   -4.2159   24.4224 C   0  0  0  0  0  0  0  0  0  0  0  0
    3.4740   -9.0387   16.5022 C   0  0  0  0  0  0  0  0  0  0  0  0
    6.8384   -7.9290   17.5282 N   0  0  0  0  0  0  0  0  0  0  0  0
    9.4126   -5.9853   18.4899 C   0  0  0  0  0  0  0  0  0  0  0  0
    4.2064  -10.3242   18.3302 C   0  0  0  0  0  0  0  0  0  0  0  0
    9.6599   -4.1551   16.4796 N   0  0  0  0  0  0  0  0  0  0  0  0
    7.0644   -6.4612   15.7375 N   0  0  0  0  0  0  0  0  0  0  0  0
    5.3549   -9.6322   18.3190 C   0  0  0  0  0  0  0  0  0  0  0  0
   10.3704   -4.9638   18.6510 C   0  0  0  0  0  0  0  0  0  0  0  0
    5.5935   -8.6419   17.4234 C   0  0  0  0  0  0  0  0  0  0  0  0
   13.0726   -4.6648   23.3394 O   0  0  0  0  0  0  0  0  0  0  0  0
    8.5955   -6.0705   17.3996 C   0  0  0  0  0  0  0  0  0  0  0  0
    4.6223   -8.3832   16.5030 C   0  0  0  0  0  0  0  0  0  0  0  0
   12.4690   -5.2624   19.9024 C   0  0  0  0  0  0  0  0  0  0  0  0
    3.2548   -9.9919   17.4189 C   0  0  0  0  0  0  0  0  0  0  0  0
   12.4767   -4.7393   22.1790 C   0  0  0  0  0  0  0  0  0  0  0  0
    7.8593   -5.3772   15.3569 N   0  0  0  0  0  0  0  0  0  0  0  0
    7.4412   -6.9038   16.9283 C   0  0  0  0  0  0  0  0  0  0  0  0
  1 21  4  0
  1 23  4  0
  2  5  1  0
  2 13  4  0
  2 16  4  0
  3  6  4  0
  3  7  4  0
  4 13  4  0
  4 19  4  0
  4 24  4  0
  6 23  4  0
  7 16  1  0
  7 21  4  0
  8 18  1  0
  9 20  4  0
  9 22  4  0
 10 17  1  0
 10 25  1  0
 11 16  4  0
 11 19  4  0
 12 15  4  0
 12 22  4  0
 14 24  4  0
 14 25  4  0
 15 17  4  0
 17 20  4  0
 18 23  1  0
 19 25  4  0
M  END
$$$$

 Created by Python create_sdf_string function

 25 28  0  0  0  0  0  0  0  0999 V2000
   13.1533   -5.2399   21.0682 C   0  0  0  0  0  0  0  0  0  0  0  0
   10.4729   -4.0295   17.6135 C   0  0  0  0  0  0  0  0  0  0  0  0
   10.4789   -4.3641   20.9564 C   0  0  0  0  0  0  0  0  0  0  0  0
    8.7421   -5.1412   16.3650 C   0  0  0  0  0  0  0  0  0  0  0  0
   11.4353   -2.9204   17.8044 C   0  0  0  0  0  0  0  0  0  0  0  0
   11.1529   -4.3028   22.1277 C   0  0  0  0  0  0  0  0  0  0  0  0
   11.1290   -4.8502   19.8052 C   0  0  0  0  0  0  0  0  0  0  0  0
   12.4329   -4.2159   24.4224 C   0  0  0  0  0  0  0  0  0  0  0  0
    3.4740   -9.0387   16.5022 C   0  0  0  0  0  0  0  0  0  0  0  0
    6.8384   -7.9290   17.5282 N   0  0  0  0  0  0  0  0  0  0  0  0
    9.4126   -5.9853   18.4899 C   0  0  0  0  0  0  0  0  0  0  0  0
    4.2064  -10.3242   18.3302 C   0  0  0  0  0  0  0  0  0  0  0  0
    9.6599   -4.1551   16.4796 N   0  0  0  0  0  0  0  0  0  0  0  0
    7.0644   -6.4612   15.7375 N   0  0  0  0  0  0  0  0  0  0  0  0
    5.3549   -9.6322   18.3190 C   0  0  0  0  0  0  0  0  0  0  0  0
   10.3704   -4.9638   18.6510 C   0  0  0  0  0  0  0  0  0  0  0  0
    5.5935   -8.6419   17.4234 C   0  0  0  0  0  0  0  0  0  0  0  0
   13.0726   -4.6648   23.3394 O   0  0  0  0  0  0  0  0  0  0  0  0
    8.5955   -6.0705   17.3996 C   0  0  0  0  0  0  0  0  0  0  0  0
    4.6223   -8.3832   16.5030 C   0  0  0  0  0  0  0  0  0  0  0  0
   12.4690   -5.2624   19.9024 C   0  0  0  0  0  0  0  0  0  0  0  0
    3.2548   -9.9919   17.4189 C   0  0  0  0  0  0  0  0  0  0  0  0
   12.4767   -4.7393   22.1790 C   0  0  0  0  0  0  0  0  0  0  0  0
    7.8593   -5.3772   15.3569 N   0  0  0  0  0  0  0  0  0  0  0  0
    7.4412   -6.9038   16.9283 C   0  0  0  0  0  0  0  0  0  0  0  0
  1 21  4  0
  1 23  4  0
  2  5  1  0
  2 13  4  0
  2 16  4  0
  3  6  4  0
  3  7  4  0
  4 13  4  0
  4 19  4  0
  4 24  4  0
  6 23  4  0
  7 16  1  0
  7 21  4  0
  8 18  1  0
  9 20  4  0
  9 22  4  0
 10 17  1  0
 10 25  1  0
 11 16  4  0
 11 19  4  0
 12 15  4  0
 12 22  4  0
 14 24  4  0
 14 25  4  0
 15 17  4  0
 17 20  4  0
 18 23  1  0
 19 25  4  0
M  END
$$$$

 Created by Python create_sdf_string function

 25 28  0  0  0  0  0  0  0  0999 V2000
   13.1533   -5.2399   21.0682 C   0  0  0  0  0  0  0  0  0  0  0  0
   10.4729   -4.0295   17.6135 C   0  0  0  0  0  0  0  0  0  0  0  0
   10.4789   -4.3641   20.9564 C   0  0  0  0  0  0  0  0  0  0  0  0
    8.7421   -5.1412   16.3650 C   0  0  0  0  0  0  0  0  0  0  0  0
   11.4353   -2.9204   17.8044 C   0  0  0  0  0  0  0  0  0  0  0  0
   11.1529   -4.3028   22.1277 C   0  0  0  0  0  0  0  0  0  0  0  0
   11.1290   -4.8502   19.8052 C   0  0  0  0  0  0  0  0  0  0  0  0
   12.4329   -4.2159   24.4224 C   0  0  0  0  0  0  0  0  0  0  0  0
    3.4740   -9.0387   16.5022 C   0  0  0  0  0  0  0  0  0  0  0  0
    6.8384   -7.9290   17.5282 N   0  0  0  0  0  0  0  0  0  0  0  0
    9.4126   -5.9853   18.4899 C   0  0  0  0  0  0  0  0  0  0  0  0
    4.2064  -10.3242   18.3302 C   0  0  0  0  0  0  0  0  0  0  0  0
    9.6599   -4.1551   16.4796 N   0  0  0  0  0  0  0  0  0  0  0  0
    7.0644   -6.4612   15.7375 N   0  0  0  0  0  0  0  0  0  0  0  0
    5.3549   -9.6322   18.3190 C   0  0  0  0  0  0  0  0  0  0  0  0
   10.3704   -4.9638   18.6510 C   0  0  0  0  0  0  0  0  0  0  0  0
    5.5935   -8.6419   17.4234 C   0  0  0  0  0  0  0  0  0  0  0  0
   13.0726   -4.6648   23.3394 O   0  0  0  0  0  0  0  0  0  0  0  0
    8.5955   -6.0705   17.3996 C   0  0  0  0  0  0  0  0  0  0  0  0
    4.6223   -8.3832   16.5030 C   0  0  0  0  0  0  0  0  0  0  0  0
   12.4690   -5.2624   19.9024 C   0  0  0  0  0  0  0  0  0  0  0  0
    3.2548   -9.9919   17.4189 C   0  0  0  0  0  0  0  0  0  0  0  0
   12.4767   -4.7393   22.1790 C   0  0  0  0  0  0  0  0  0  0  0  0
    7.8593   -5.3772   15.3569 N   0  0  0  0  0  0  0  0  0  0  0  0
    7.4412   -6.9038   16.9283 C   0  0  0  0  0  0  0  0  0  0  0  0
  1 21  4  0
  1 23  4  0
  2  5  1  0
  2 13  4  0
  2 16  4  0
  3  6  4  0
  3  7  4  0
  4 13  4  0
  4 19  4  0
  4 24  4  0
  6 23  4  0
  7 16  1  0
  7 21  4  0
  8 18  1  0
  9 20  4  0
  9 22  4  0
 10 17  1  0
 10 25  1  0
 11 16  4  0
 11 19  4  0
 12 15  4  0
 12 22  4  0
 14 24  4  0
 14 25  4  0
 15 17  4  0
 17 20  4  0
 18 23  1  0
 19 25  4  0
M  END
$$$$

 Created by Python create_sdf_string function

 25 28  0  0  0  0  0  0  0  0999 V2000
   13.1533   -5.2399   21.0682 C   0  0  0  0  0  0  0  0  0  0  0  0
   10.4729   -4.0295   17.6135 C   0  0  0  0  0  0  0  0  0  0  0  0
   10.4789   -4.3641   20.9564 C   0  0  0  0  0  0  0  0  0  0  0  0
    8.7421   -5.1412   16.3650 C   0  0  0  0  0  0  0  0  0  0  0  0
   11.4353   -2.9204   17.8044 C   0  0  0  0  0  0  0  0  0  0  0  0
   11.1529   -4.3028   22.1277 C   0  0  0  0  0  0  0  0  0  0  0  0
   11.1290   -4.8502   19.8052 C   0  0  0  0  0  0  0  0  0  0  0  0
   12.4329   -4.2159   24.4224 C   0  0  0  0  0  0  0  0  0  0  0  0
    3.4740   -9.0387   16.5022 C   0  0  0  0  0  0  0  0  0  0  0  0
    6.8384   -7.9290   17.5282 N   0  0  0  0  0  0  0  0  0  0  0  0
    9.4126   -5.9853   18.4899 C   0  0  0  0  0  0  0  0  0  0  0  0
    4.2064  -10.3242   18.3302 C   0  0  0  0  0  0  0  0  0  0  0  0
    9.6599   -4.1551   16.4796 N   0  0  0  0  0  0  0  0  0  0  0  0
    7.0644   -6.4612   15.7375 N   0  0  0  0  0  0  0  0  0  0  0  0
    5.3549   -9.6322   18.3190 C   0  0  0  0  0  0  0  0  0  0  0  0
   10.3704   -4.9638   18.6510 C   0  0  0  0  0  0  0  0  0  0  0  0
    5.5935   -8.6419   17.4234 C   0  0  0  0  0  0  0  0  0  0  0  0
   13.0726   -4.6648   23.3394 O   0  0  0  0  0  0  0  0  0  0  0  0
    8.5955   -6.0705   17.3996 C   0  0  0  0  0  0  0  0  0  0  0  0
    4.6223   -8.3832   16.5030 C   0  0  0  0  0  0  0  0  0  0  0  0
   12.4690   -5.2624   19.9024 C   0  0  0  0  0  0  0  0  0  0  0  0
    3.2548   -9.9919   17.4189 C   0  0  0  0  0  0  0  0  0  0  0  0
   12.4767   -4.7393   22.1790 C   0  0  0  0  0  0  0  0  0  0  0  0
    7.8593   -5.3772   15.3569 N   0  0  0  0  0  0  0  0  0  0  0  0
    7.4412   -6.9038   16.9283 C   0  0  0  0  0  0  0  0  0  0  0  0
  1 21  4  0
  1 23  4  0
  2  5  1  0
  2 13  4  0
  2 16  4  0
  3  6  4  0
  3  7  4  0
  4 13  4  0
  4 19  4  0
  4 24  4  0
  6 23  4  0
  7 16  1  0
  7 21  4  0
  8 18  1  0
  9 20  4  0
  9 22  4  0
 10 17  1  0
 10 25  1  0
 11 16  4  0
 11 19  4  0
 12 15  4  0
 12 22  4  0
 14 24  4  0
 14 25  4  0
 15 17  4  0
 17 20  4  0
 18 23  1  0
 19 25  4  0
M  END
$$$$

 Created by Python create_sdf_string function

 25 28  0  0  0  0  0  0  0  0999 V2000
   13.1533   -5.2399   21.0682 C   0  0  0  0  0  0  0  0  0  0  0  0
   10.4729   -4.0295   17.6135 C   0  0  0  0  0  0  0  0  0  0  0  0
   10.4789   -4.3641   20.9564 C   0  0  0  0  0  0  0  0  0  0  0  0
    8.7421   -5.1412   16.3650 C   0  0  0  0  0  0  0  0  0  0  0  0
   11.4353   -2.9204   17.8044 C   0  0  0  0  0  0  0  0  0  0  0  0
   11.1529   -4.3028   22.1277 C   0  0  0  0  0  0  0  0  0  0  0  0
   11.1290   -4.8502   19.8052 C   0  0  0  0  0  0  0  0  0  0  0  0
   12.4329   -4.2159   24.4224 C   0  0  0  0  0  0  0  0  0  0  0  0
    3.4740   -9.0387   16.5022 C   0  0  0  0  0  0  0  0  0  0  0  0
    6.8384   -7.9290   17.5282 N   0  0  0  0  0  0  0  0  0  0  0  0
    9.4126   -5.9853   18.4899 C   0  0  0  0  0  0  0  0  0  0  0  0
    4.2064  -10.3242   18.3302 C   0  0  0  0  0  0  0  0  0  0  0  0
    9.6599   -4.1551   16.4796 N   0  0  0  0  0  0  0  0  0  0  0  0
    7.0644   -6.4612   15.7375 N   0  0  0  0  0  0  0  0  0  0  0  0
    5.3549   -9.6322   18.3190 C   0  0  0  0  0  0  0  0  0  0  0  0
   10.3704   -4.9638   18.6510 C   0  0  0  0  0  0  0  0  0  0  0  0
    5.5935   -8.6419   17.4234 C   0  0  0  0  0  0  0  0  0  0  0  0
   13.0726   -4.6648   23.3394 O   0  0  0  0  0  0  0  0  0  0  0  0
    8.5955   -6.0705   17.3996 C   0  0  0  0  0  0  0  0  0  0  0  0
    4.6223   -8.3832   16.5030 C   0  0  0  0  0  0  0  0  0  0  0  0
   12.4690   -5.2624   19.9024 C   0  0  0  0  0  0  0  0  0  0  0  0
    3.2548   -9.9919   17.4189 C   0  0  0  0  0  0  0  0  0  0  0  0
   12.4767   -4.7393   22.1790 C   0  0  0  0  0  0  0  0  0  0  0  0
    7.8593   -5.3772   15.3569 N   0  0  0  0  0  0  0  0  0  0  0  0
    7.4412   -6.9038   16.9283 C   0  0  0  0  0  0  0  0  0  0  0  0
  1 21  4  0
  1 23  4  0
  2  5  1  0
  2 13  4  0
  2 16  4  0
  3  6  4  0
  3  7  4  0
  4 13  4  0
  4 19  4  0
  4 24  4  0
  6 23  4  0
  7 16  1  0
  7 21  4  0
  8 18  1  0
  9 20  4  0
  9 22  4  0
 10 17  1  0
 10 25  1  0
 11 16  4  0
 11 19  4  0
 12 15  4  0
 12 22  4  0
 14 24  4  0
 14 25  4  0
 15 17  4  0
 17 20  4  0
 18 23  1  0
 19 25  4  0
M  END
$$$$

 Created by Python create_sdf_string function

 25 28  0  0  0  0  0  0  0  0999 V2000
   13.1533   -5.2399   21.0682 C   0  0  0  0  0  0  0  0  0  0  0  0
   10.4729   -4.0295   17.6135 C   0  0  0  0  0  0  0  0  0  0  0  0
   10.4789   -4.3641   20.9564 C   0  0  0  0  0  0  0  0  0  0  0  0
    8.7421   -5.1412   16.3650 C   0  0  0  0  0  0  0  0  0  0  0  0
   11.4353   -2.9204   17.8044 C   0  0  0  0  0  0  0  0  0  0  0  0
   11.1529   -4.3028   22.1277 C   0  0  0  0  0  0  0  0  0  0  0  0
   11.1290   -4.8502   19.8052 C   0  0  0  0  0  0  0  0  0  0  0  0
   12.4329   -4.2159   24.4224 C   0  0  0  0  0  0  0  0  0  0  0  0
    3.4740   -9.0387   16.5022 C   0  0  0  0  0  0  0  0  0  0  0  0
    6.8384   -7.9290   17.5282 N   0  0  0  0  0  0  0  0  0  0  0  0
    9.4126   -5.9853   18.4899 C   0  0  0  0  0  0  0  0  0  0  0  0
    4.2064  -10.3242   18.3302 C   0  0  0  0  0  0  0  0  0  0  0  0
    9.6599   -4.1551   16.4796 N   0  0  0  0  0  0  0  0  0  0  0  0
    7.0644   -6.4612   15.7375 N   0  0  0  0  0  0  0  0  0  0  0  0
    5.3549   -9.6322   18.3190 C   0  0  0  0  0  0  0  0  0  0  0  0
   10.3704   -4.9638   18.6510 C   0  0  0  0  0  0  0  0  0  0  0  0
    5.5935   -8.6419   17.4234 C   0  0  0  0  0  0  0  0  0  0  0  0
   13.0726   -4.6648   23.3394 O   0  0  0  0  0  0  0  0  0  0  0  0
    8.5955   -6.0705   17.3996 C   0  0  0  0  0  0  0  0  0  0  0  0
    4.6223   -8.3832   16.5030 C   0  0  0  0  0  0  0  0  0  0  0  0
   12.4690   -5.2624   19.9024 C   0  0  0  0  0  0  0  0  0  0  0  0
    3.2548   -9.9919   17.4189 C   0  0  0  0  0  0  0  0  0  0  0  0
   12.4767   -4.7393   22.1790 C   0  0  0  0  0  0  0  0  0  0  0  0
    7.8593   -5.3772   15.3569 N   0  0  0  0  0  0  0  0  0  0  0  0
    7.4412   -6.9038   16.9283 C   0  0  0  0  0  0  0  0  0  0  0  0
  1 21  4  0
  1 23  4  0
  2  5  1  0
  2 13  4  0
  2 16  4  0
  3  6  4  0
  3  7  4  0
  4 13  4  0
  4 19  4  0
  4 24  4  0
  6 23  4  0
  7 16  1  0
  7 21  4  0
  8 18  1  0
  9 20  4  0
  9 22  4  0
 10 17  1  0
 10 25  1  0
 11 16  4  0
 11 19  4  0
 12 15  4  0
 12 22  4  0
 14 24  4  0
 14 25  4  0
 15 17  4  0
 17 20  4  0
 18 23  1  0
 19 25  4  0
M  END
$$$$

 Created by Python create_sdf_string function

 25 28  0  0  0  0  0  0  0  0999 V2000
   13.1533   -5.2399   21.0682 C   0  0  0  0  0  0  0  0  0  0  0  0
   10.4729   -4.0295   17.6135 C   0  0  0  0  0  0  0  0  0  0  0  0
   10.4789   -4.3641   20.9564 C   0  0  0  0  0  0  0  0  0  0  0  0
    8.7421   -5.1412   16.3650 C   0  0  0  0  0  0  0  0  0  0  0  0
   11.4353   -2.9204   17.8044 C   0  0  0  0  0  0  0  0  0  0  0  0
   11.1529   -4.3028   22.1277 C   0  0  0  0  0  0  0  0  0  0  0  0
   11.1290   -4.8502   19.8052 C   0  0  0  0  0  0  0  0  0  0  0  0
   12.4329   -4.2159   24.4224 C   0  0  0  0  0  0  0  0  0  0  0  0
    3.4740   -9.0387   16.5022 C   0  0  0  0  0  0  0  0  0  0  0  0
    6.8384   -7.9290   17.5282 N   0  0  0  0  0  0  0  0  0  0  0  0
    9.4126   -5.9853   18.4899 C   0  0  0  0  0  0  0  0  0  0  0  0
    4.2064  -10.3242   18.3302 C   0  0  0  0  0  0  0  0  0  0  0  0
    9.6599   -4.1551   16.4796 N   0  0  0  0  0  0  0  0  0  0  0  0
    7.0644   -6.4612   15.7375 N   0  0  0  0  0  0  0  0  0  0  0  0
    5.3549   -9.6322   18.3190 C   0  0  0  0  0  0  0  0  0  0  0  0
   10.3704   -4.9638   18.6510 C   0  0  0  0  0  0  0  0  0  0  0  0
    5.5935   -8.6419   17.4234 C   0  0  0  0  0  0  0  0  0  0  0  0
   13.0726   -4.6648   23.3394 O   0  0  0  0  0  0  0  0  0  0  0  0
    8.5955   -6.0705   17.3996 C   0  0  0  0  0  0  0  0  0  0  0  0
    4.6223   -8.3832   16.5030 C   0  0  0  0  0  0  0  0  0  0  0  0
   12.4690   -5.2624   19.9024 C   0  0  0  0  0  0  0  0  0  0  0  0
    3.2548   -9.9919   17.4189 C   0  0  0  0  0  0  0  0  0  0  0  0
   12.4767   -4.7393   22.1790 C   0  0  0  0  0  0  0  0  0  0  0  0
    7.8593   -5.3772   15.3569 N   0  0  0  0  0  0  0  0  0  0  0  0
    7.4412   -6.9038   16.9283 C   0  0  0  0  0  0  0  0  0  0  0  0
  1 21  4  0
  1 23  4  0
  2  5  1  0
  2 13  4  0
  2 16  4  0
  3  6  4  0
  3  7  4  0
  4 13  4  0
  4 19  4  0
  4 24  4  0
  6 23  4  0
  7 16  1  0
  7 21  4  0
  8 18  1  0
  9 20  4  0
  9 22  4  0
 10 17  1  0
 10 25  1  0
 11 16  4  0
 11 19  4  0
 12 15  4  0
 12 22  4  0
 14 24  4  0
 14 25  4  0
 15 17  4  0
 17 20  4  0
 18 23  1  0
 19 25  4  0
M  END
$$$$

 Created by Python create_sdf_string function

 25 28  0  0  0  0  0  0  0  0999 V2000
   13.1533   -5.2399   21.0682 C   0  0  0  0  0  0  0  0  0  0  0  0
   10.4729   -4.0295   17.6135 C   0  0  0  0  0  0  0  0  0  0  0  0
   10.4789   -4.3641   20.9564 C   0  0  0  0  0  0  0  0  0  0  0  0
    8.7421   -5.1412   16.3650 C   0  0  0  0  0  0  0  0  0  0  0  0
   11.4353   -2.9204   17.8044 C   0  0  0  0  0  0  0  0  0  0  0  0
   11.1529   -4.3028   22.1277 C   0  0  0  0  0  0  0  0  0  0  0  0
   11.1290   -4.8502   19.8052 C   0  0  0  0  0  0  0  0  0  0  0  0
   12.4329   -4.2159   24.4224 C   0  0  0  0  0  0  0  0  0  0  0  0
    3.4740   -9.0387   16.5022 C   0  0  0  0  0  0  0  0  0  0  0  0
    6.8384   -7.9290   17.5282 N   0  0  0  0  0  0  0  0  0  0  0  0
    9.4126   -5.9853   18.4899 C   0  0  0  0  0  0  0  0  0  0  0  0
    4.2064  -10.3242   18.3302 C   0  0  0  0  0  0  0  0  0  0  0  0
    9.6599   -4.1551   16.4796 N   0  0  0  0  0  0  0  0  0  0  0  0
    7.0644   -6.4612   15.7375 N   0  0  0  0  0  0  0  0  0  0  0  0
    5.3549   -9.6322   18.3190 C   0  0  0  0  0  0  0  0  0  0  0  0
   10.3704   -4.9638   18.6510 C   0  0  0  0  0  0  0  0  0  0  0  0
    5.5935   -8.6419   17.4234 C   0  0  0  0  0  0  0  0  0  0  0  0
   13.0726   -4.6648   23.3394 O   0  0  0  0  0  0  0  0  0  0  0  0
    8.5955   -6.0705   17.3996 C   0  0  0  0  0  0  0  0  0  0  0  0
    4.6223   -8.3832   16.5030 C   0  0  0  0  0  0  0  0  0  0  0  0
   12.4690   -5.2624   19.9024 C   0  0  0  0  0  0  0  0  0  0  0  0
    3.2548   -9.9919   17.4189 C   0  0  0  0  0  0  0  0  0  0  0  0
   12.4767   -4.7393   22.1790 C   0  0  0  0  0  0  0  0  0  0  0  0
    7.8593   -5.3772   15.3569 N   0  0  0  0  0  0  0  0  0  0  0  0
    7.4412   -6.9038   16.9283 C   0  0  0  0  0  0  0  0  0  0  0  0
  1 21  4  0
  1 23  4  0
  2  5  1  0
  2 13  4  0
  2 16  4  0
  3  6  4  0
  3  7  4  0
  4 13  4  0
  4 19  4  0
  4 24  4  0
  6 23  4  0
  7 16  1  0
  7 21  4  0
  8 18  1  0
  9 20  4  0
  9 22  4  0
 10 17  1  0
 10 25  1  0
 11 16  4  0
 11 19  4  0
 12 15  4  0
 12 22  4  0
 14 24  4  0
 14 25  4  0
 15 17  4  0
 17 20  4  0
 18 23  1  0
 19 25  4  0
M  END
$$$$

 Created by Python create_sdf_string function

 25 28  0  0  0  0  0  0  0  0999 V2000
   13.1533   -5.2399   21.0682 C   0  0  0  0  0  0  0  0  0  0  0  0
   10.4729   -4.0295   17.6135 C   0  0  0  0  0  0  0  0  0  0  0  0
   10.4789   -4.3641   20.9564 C   0  0  0  0  0  0  0  0  0  0  0  0
    8.7421   -5.1412   16.3650 C   0  0  0  0  0  0  0  0  0  0  0  0
   11.4353   -2.9204   17.8044 C   0  0  0  0  0  0  0  0  0  0  0  0
   11.1529   -4.3028   22.1277 C   0  0  0  0  0  0  0  0  0  0  0  0
   11.1290   -4.8502   19.8052 C   0  0  0  0  0  0  0  0  0  0  0  0
   12.4329   -4.2159   24.4224 C   0  0  0  0  0  0  0  0  0  0  0  0
    3.4740   -9.0387   16.5022 C   0  0  0  0  0  0  0  0  0  0  0  0
    6.8384   -7.9290   17.5282 N   0  0  0  0  0  0  0  0  0  0  0  0
    9.4126   -5.9853   18.4899 C   0  0  0  0  0  0  0  0  0  0  0  0
    4.2064  -10.3242   18.3302 C   0  0  0  0  0  0  0  0  0  0  0  0
    9.6599   -4.1551   16.4796 N   0  0  0  0  0  0  0  0  0  0  0  0
    7.0644   -6.4612   15.7375 N   0  0  0  0  0  0  0  0  0  0  0  0
    5.3549   -9.6322   18.3190 C   0  0  0  0  0  0  0  0  0  0  0  0
   10.3704   -4.9638   18.6510 C   0  0  0  0  0  0  0  0  0  0  0  0
    5.5935   -8.6419   17.4234 C   0  0  0  0  0  0  0  0  0  0  0  0
   13.0726   -4.6648   23.3394 O   0  0  0  0  0  0  0  0  0  0  0  0
    8.5955   -6.0705   17.3996 C   0  0  0  0  0  0  0  0  0  0  0  0
    4.6223   -8.3832   16.5030 C   0  0  0  0  0  0  0  0  0  0  0  0
   12.4690   -5.2624   19.9024 C   0  0  0  0  0  0  0  0  0  0  0  0
    3.2548   -9.9919   17.4189 C   0  0  0  0  0  0  0  0  0  0  0  0
   12.4767   -4.7393   22.1790 C   0  0  0  0  0  0  0  0  0  0  0  0
    7.8593   -5.3772   15.3569 N   0  0  0  0  0  0  0  0  0  0  0  0
    7.4412   -6.9038   16.9283 C   0  0  0  0  0  0  0  0  0  0  0  0
  1 21  4  0
  1 23  4  0
  2  5  1  0
  2 13  4  0
  2 16  4  0
  3  6  4  0
  3  7  4  0
  4 13  4  0
  4 19  4  0
  4 24  4  0
  6 23  4  0
  7 16  1  0
  7 21  4  0
  8 18  1  0
  9 20  4  0
  9 22  4  0
 10 17  1  0
 10 25  1  0
 11 16  4  0
 11 19  4  0
 12 15  4  0
 12 22  4  0
 14 24  4  0
 14 25  4  0
 15 17  4  0
 17 20  4  0
 18 23  1  0
 19 25  4  0
M  END
$$$$

 Created by Python create_sdf_string function

 25 28  0  0  0  0  0  0  0  0999 V2000
   13.1533   -5.2399   21.0682 C   0  0  0  0  0  0  0  0  0  0  0  0
   10.4729   -4.0295   17.6135 C   0  0  0  0  0  0  0  0  0  0  0  0
   10.4789   -4.3641   20.9564 C   0  0  0  0  0  0  0  0  0  0  0  0
    8.7421   -5.1412   16.3650 C   0  0  0  0  0  0  0  0  0  0  0  0
   11.4353   -2.9204   17.8044 C   0  0  0  0  0  0  0  0  0  0  0  0
   11.1529   -4.3028   22.1277 C   0  0  0  0  0  0  0  0  0  0  0  0
   11.1290   -4.8502   19.8052 C   0  0  0  0  0  0  0  0  0  0  0  0
   12.4329   -4.2159   24.4224 C   0  0  0  0  0  0  0  0  0  0  0  0
    3.4740   -9.0387   16.5022 C   0  0  0  0  0  0  0  0  0  0  0  0
    6.8384   -7.9290   17.5282 N   0  0  0  0  0  0  0  0  0  0  0  0
    9.4126   -5.9853   18.4899 C   0  0  0  0  0  0  0  0  0  0  0  0
    4.2064  -10.3242   18.3302 C   0  0  0  0  0  0  0  0  0  0  0  0
    9.6599   -4.1551   16.4796 N   0  0  0  0  0  0  0  0  0  0  0  0
    7.0644   -6.4612   15.7375 N   0  0  0  0  0  0  0  0  0  0  0  0
    5.3549   -9.6322   18.3190 C   0  0  0  0  0  0  0  0  0  0  0  0
   10.3704   -4.9638   18.6510 C   0  0  0  0  0  0  0  0  0  0  0  0
    5.5935   -8.6419   17.4234 C   0  0  0  0  0  0  0  0  0  0  0  0
   13.0726   -4.6648   23.3394 O   0  0  0  0  0  0  0  0  0  0  0  0
    8.5955   -6.0705   17.3996 C   0  0  0  0  0  0  0  0  0  0  0  0
    4.6223   -8.3832   16.5030 C   0  0  0  0  0  0  0  0  0  0  0  0
   12.4690   -5.2624   19.9024 C   0  0  0  0  0  0  0  0  0  0  0  0
    3.2548   -9.9919   17.4189 C   0  0  0  0  0  0  0  0  0  0  0  0
   12.4767   -4.7393   22.1790 C   0  0  0  0  0  0  0  0  0  0  0  0
    7.8593   -5.3772   15.3569 N   0  0  0  0  0  0  0  0  0  0  0  0
    7.4412   -6.9038   16.9283 C   0  0  0  0  0  0  0  0  0  0  0  0
  1 21  4  0
  1 23  4  0
  2  5  1  0
  2 13  4  0
  2 16  4  0
  3  6  4  0
  3  7  4  0
  4 13  4  0
  4 19  4  0
  4 24  4  0
  6 23  4  0
  7 16  1  0
  7 21  4  0
  8 18  1  0
  9 20  4  0
  9 22  4  0
 10 17  1  0
 10 25  1  0
 11 16  4  0
 11 19  4  0
 12 15  4  0
 12 22  4  0
 14 24  4  0
 14 25  4  0
 15 17  4  0
 17 20  4  0
 18 23  1  0
 19 25  4  0
M  END
$$$$

 Created by Python create_sdf_string function

 25 28  0  0  0  0  0  0  0  0999 V2000
   13.1533   -5.2399   21.0682 C   0  0  0  0  0  0  0  0  0  0  0  0
   10.4729   -4.0295   17.6135 C   0  0  0  0  0  0  0  0  0  0  0  0
   10.4789   -4.3641   20.9564 C   0  0  0  0  0  0  0  0  0  0  0  0
    8.7421   -5.1412   16.3650 C   0  0  0  0  0  0  0  0  0  0  0  0
   11.4353   -2.9204   17.8044 C   0  0  0  0  0  0  0  0  0  0  0  0
   11.1529   -4.3028   22.1277 C   0  0  0  0  0  0  0  0  0  0  0  0
   11.1290   -4.8502   19.8052 C   0  0  0  0  0  0  0  0  0  0  0  0
   12.4329   -4.2159   24.4224 C   0  0  0  0  0  0  0  0  0  0  0  0
    3.4740   -9.0387   16.5022 C   0  0  0  0  0  0  0  0  0  0  0  0
    6.8384   -7.9290   17.5282 N   0  0  0  0  0  0  0  0  0  0  0  0
    9.4126   -5.9853   18.4899 C   0  0  0  0  0  0  0  0  0  0  0  0
    4.2064  -10.3242   18.3302 C   0  0  0  0  0  0  0  0  0  0  0  0
    9.6599   -4.1551   16.4796 N   0  0  0  0  0  0  0  0  0  0  0  0
    7.0644   -6.4612   15.7375 N   0  0  0  0  0  0  0  0  0  0  0  0
    5.3549   -9.6322   18.3190 C   0  0  0  0  0  0  0  0  0  0  0  0
   10.3704   -4.9638   18.6510 C   0  0  0  0  0  0  0  0  0  0  0  0
    5.5935   -8.6419   17.4234 C   0  0  0  0  0  0  0  0  0  0  0  0
   13.0726   -4.6648   23.3394 O   0  0  0  0  0  0  0  0  0  0  0  0
    8.5955   -6.0705   17.3996 C   0  0  0  0  0  0  0  0  0  0  0  0
    4.6223   -8.3832   16.5030 C   0  0  0  0  0  0  0  0  0  0  0  0
   12.4690   -5.2624   19.9024 C   0  0  0  0  0  0  0  0  0  0  0  0
    3.2548   -9.9919   17.4189 C   0  0  0  0  0  0  0  0  0  0  0  0
   12.4767   -4.7393   22.1790 C   0  0  0  0  0  0  0  0  0  0  0  0
    7.8593   -5.3772   15.3569 N   0  0  0  0  0  0  0  0  0  0  0  0
    7.4412   -6.9038   16.9283 C   0  0  0  0  0  0  0  0  0  0  0  0
  1 21  4  0
  1 23  4  0
  2  5  1  0
  2 13  4  0
  2 16  4  0
  3  6  4  0
  3  7  4  0
  4 13  4  0
  4 19  4  0
  4 24  4  0
  6 23  4  0
  7 16  1  0
  7 21  4  0
  8 18  1  0
  9 20  4  0
  9 22  4  0
 10 17  1  0
 10 25  1  0
 11 16  4  0
 11 19  4  0
 12 15  4  0
 12 22  4  0
 14 24  4  0
 14 25  4  0
 15 17  4  0
 17 20  4  0
 18 23  1  0
 19 25  4  0
M  END
$$$$

 Created by Python create_sdf_string function

 25 28  0  0  0  0  0  0  0  0999 V2000
   13.1533   -5.2399   21.0682 C   0  0  0  0  0  0  0  0  0  0  0  0
   10.4729   -4.0295   17.6135 C   0  0  0  0  0  0  0  0  0  0  0  0
   10.4789   -4.3641   20.9564 C   0  0  0  0  0  0  0  0  0  0  0  0
    8.7421   -5.1412   16.3650 C   0  0  0  0  0  0  0  0  0  0  0  0
   11.4353   -2.9204   17.8044 C   0  0  0  0  0  0  0  0  0  0  0  0
   11.1529   -4.3028   22.1277 C   0  0  0  0  0  0  0  0  0  0  0  0
   11.1290   -4.8502   19.8052 C   0  0  0  0  0  0  0  0  0  0  0  0
   12.4329   -4.2159   24.4224 C   0  0  0  0  0  0  0  0  0  0  0  0
    3.4740   -9.0387   16.5022 C   0  0  0  0  0  0  0  0  0  0  0  0
    6.8384   -7.9290   17.5282 N   0  0  0  0  0  0  0  0  0  0  0  0
    9.4126   -5.9853   18.4899 C   0  0  0  0  0  0  0  0  0  0  0  0
    4.2064  -10.3242   18.3302 C   0  0  0  0  0  0  0  0  0  0  0  0
    9.6599   -4.1551   16.4796 N   0  0  0  0  0  0  0  0  0  0  0  0
    7.0644   -6.4612   15.7375 N   0  0  0  0  0  0  0  0  0  0  0  0
    5.3549   -9.6322   18.3190 C   0  0  0  0  0  0  0  0  0  0  0  0
   10.3704   -4.9638   18.6510 C   0  0  0  0  0  0  0  0  0  0  0  0
    5.5935   -8.6419   17.4234 C   0  0  0  0  0  0  0  0  0  0  0  0
   13.0726   -4.6648   23.3394 O   0  0  0  0  0  0  0  0  0  0  0  0
    8.5955   -6.0705   17.3996 C   0  0  0  0  0  0  0  0  0  0  0  0
    4.6223   -8.3832   16.5030 C   0  0  0  0  0  0  0  0  0  0  0  0
   12.4690   -5.2624   19.9024 C   0  0  0  0  0  0  0  0  0  0  0  0
    3.2548   -9.9919   17.4189 C   0  0  0  0  0  0  0  0  0  0  0  0
   12.4767   -4.7393   22.1790 C   0  0  0  0  0  0  0  0  0  0  0  0
    7.8593   -5.3772   15.3569 N   0  0  0  0  0  0  0  0  0  0  0  0
    7.4412   -6.9038   16.9283 C   0  0  0  0  0  0  0  0  0  0  0  0
  1 21  4  0
  1 23  4  0
  2  5  1  0
  2 13  4  0
  2 16  4  0
  3  6  4  0
  3  7  4  0
  4 13  4  0
  4 19  4  0
  4 24  4  0
  6 23  4  0
  7 16  1  0
  7 21  4  0
  8 18  1  0
  9 20  4  0
  9 22  4  0
 10 17  1  0
 10 25  1  0
 11 16  4  0
 11 19  4  0
 12 15  4  0
 12 22  4  0
 14 24  4  0
 14 25  4  0
 15 17  4  0
 17 20  4  0
 18 23  1  0
 19 25  4  0
M  END
$$$$

 Created by Python create_sdf_string function

 25 28  0  0  0  0  0  0  0  0999 V2000
   13.1533   -5.2399   21.0682 C   0  0  0  0  0  0  0  0  0  0  0  0
   10.4729   -4.0295   17.6135 C   0  0  0  0  0  0  0  0  0  0  0  0
   10.4789   -4.3641   20.9564 C   0  0  0  0  0  0  0  0  0  0  0  0
    8.7421   -5.1412   16.3650 C   0  0  0  0  0  0  0  0  0  0  0  0
   11.4353   -2.9204   17.8044 C   0  0  0  0  0  0  0  0  0  0  0  0
   11.1529   -4.3028   22.1277 C   0  0  0  0  0  0  0  0  0  0  0  0
   11.1290   -4.8502   19.8052 C   0  0  0  0  0  0  0  0  0  0  0  0
   12.4329   -4.2159   24.4224 C   0  0  0  0  0  0  0  0  0  0  0  0
    3.4740   -9.0387   16.5022 C   0  0  0  0  0  0  0  0  0  0  0  0
    6.8384   -7.9290   17.5282 N   0  0  0  0  0  0  0  0  0  0  0  0
    9.4126   -5.9853   18.4899 C   0  0  0  0  0  0  0  0  0  0  0  0
    4.2064  -10.3242   18.3302 C   0  0  0  0  0  0  0  0  0  0  0  0
    9.6599   -4.1551   16.4796 N   0  0  0  0  0  0  0  0  0  0  0  0
    7.0644   -6.4612   15.7375 N   0  0  0  0  0  0  0  0  0  0  0  0
    5.3549   -9.6322   18.3190 C   0  0  0  0  0  0  0  0  0  0  0  0
   10.3704   -4.9638   18.6510 C   0  0  0  0  0  0  0  0  0  0  0  0
    5.5935   -8.6419   17.4234 C   0  0  0  0  0  0  0  0  0  0  0  0
   13.0726   -4.6648   23.3394 O   0  0  0  0  0  0  0  0  0  0  0  0
    8.5955   -6.0705   17.3996 C   0  0  0  0  0  0  0  0  0  0  0  0
    4.6223   -8.3832   16.5030 C   0  0  0  0  0  0  0  0  0  0  0  0
   12.4690   -5.2624   19.9024 C   0  0  0  0  0  0  0  0  0  0  0  0
    3.2548   -9.9919   17.4189 C   0  0  0  0  0  0  0  0  0  0  0  0
   12.4767   -4.7393   22.1790 C   0  0  0  0  0  0  0  0  0  0  0  0
    7.8593   -5.3772   15.3569 N   0  0  0  0  0  0  0  0  0  0  0  0
    7.4412   -6.9038   16.9283 C   0  0  0  0  0  0  0  0  0  0  0  0
  1 21  4  0
  1 23  4  0
  2  5  1  0
  2 13  4  0
  2 16  4  0
  3  6  4  0
  3  7  4  0
  4 13  4  0
  4 19  4  0
  4 24  4  0
  6 23  4  0
  7 16  1  0
  7 21  4  0
  8 18  1  0
  9 20  4  0
  9 22  4  0
 10 17  1  0
 10 25  1  0
 11 16  4  0
 11 19  4  0
 12 15  4  0
 12 22  4  0
 14 24  4  0
 14 25  4  0
 15 17  4  0
 17 20  4  0
 18 23  1  0
 19 25  4  0
M  END
$$$$

 Created by Python create_sdf_string function

 25 28  0  0  0  0  0  0  0  0999 V2000
   13.1533   -5.2399   21.0682 C   0  0  0  0  0  0  0  0  0  0  0  0
   10.4729   -4.0295   17.6135 C   0  0  0  0  0  0  0  0  0  0  0  0
   10.4789   -4.3641   20.9564 C   0  0  0  0  0  0  0  0  0  0  0  0
    8.7421   -5.1412   16.3650 C   0  0  0  0  0  0  0  0  0  0  0  0
   11.4353   -2.9204   17.8044 C   0  0  0  0  0  0  0  0  0  0  0  0
   11.1529   -4.3028   22.1277 C   0  0  0  0  0  0  0  0  0  0  0  0
   11.1290   -4.8502   19.8052 C   0  0  0  0  0  0  0  0  0  0  0  0
   12.4329   -4.2159   24.4224 C   0  0  0  0  0  0  0  0  0  0  0  0
    3.4740   -9.0387   16.5022 C   0  0  0  0  0  0  0  0  0  0  0  0
    6.8384   -7.9290   17.5282 N   0  0  0  0  0  0  0  0  0  0  0  0
    9.4126   -5.9853   18.4899 C   0  0  0  0  0  0  0  0  0  0  0  0
    4.2064  -10.3242   18.3302 C   0  0  0  0  0  0  0  0  0  0  0  0
    9.6599   -4.1551   16.4796 N   0  0  0  0  0  0  0  0  0  0  0  0
    7.0644   -6.4612   15.7375 N   0  0  0  0  0  0  0  0  0  0  0  0
    5.3549   -9.6322   18.3190 C   0  0  0  0  0  0  0  0  0  0  0  0
   10.3704   -4.9638   18.6510 C   0  0  0  0  0  0  0  0  0  0  0  0
    5.5935   -8.6419   17.4234 C   0  0  0  0  0  0  0  0  0  0  0  0
   13.0726   -4.6648   23.3394 O   0  0  0  0  0  0  0  0  0  0  0  0
    8.5955   -6.0705   17.3996 C   0  0  0  0  0  0  0  0  0  0  0  0
    4.6223   -8.3832   16.5030 C   0  0  0  0  0  0  0  0  0  0  0  0
   12.4690   -5.2624   19.9024 C   0  0  0  0  0  0  0  0  0  0  0  0
    3.2548   -9.9919   17.4189 C   0  0  0  0  0  0  0  0  0  0  0  0
   12.4767   -4.7393   22.1790 C   0  0  0  0  0  0  0  0  0  0  0  0
    7.8593   -5.3772   15.3569 N   0  0  0  0  0  0  0  0  0  0  0  0
    7.4412   -6.9038   16.9283 C   0  0  0  0  0  0  0  0  0  0  0  0
  1 21  4  0
  1 23  4  0
  2  5  1  0
  2 13  4  0
  2 16  4  0
  3  6  4  0
  3  7  4  0
  4 13  4  0
  4 19  4  0
  4 24  4  0
  6 23  4  0
  7 16  1  0
  7 21  4  0
  8 18  1  0
  9 20  4  0
  9 22  4  0
 10 17  1  0
 10 25  1  0
 11 16  4  0
 11 19  4  0
 12 15  4  0
 12 22  4  0
 14 24  4  0
 14 25  4  0
 15 17  4  0
 17 20  4  0
 18 23  1  0
 19 25  4  0
M  END
$$$$

 Created by Python create_sdf_string function

 25 28  0  0  0  0  0  0  0  0999 V2000
   13.1533   -5.2399   21.0682 C   0  0  0  0  0  0  0  0  0  0  0  0
   10.4729   -4.0295   17.6135 C   0  0  0  0  0  0  0  0  0  0  0  0
   10.4789   -4.3641   20.9564 C   0  0  0  0  0  0  0  0  0  0  0  0
    8.7421   -5.1412   16.3650 C   0  0  0  0  0  0  0  0  0  0  0  0
   11.4353   -2.9204   17.8044 C   0  0  0  0  0  0  0  0  0  0  0  0
   11.1529   -4.3028   22.1277 C   0  0  0  0  0  0  0  0  0  0  0  0
   11.1290   -4.8502   19.8052 C   0  0  0  0  0  0  0  0  0  0  0  0
   12.4329   -4.2159   24.4224 C   0  0  0  0  0  0  0  0  0  0  0  0
    3.4740   -9.0387   16.5022 C   0  0  0  0  0  0  0  0  0  0  0  0
    6.8384   -7.9290   17.5282 N   0  0  0  0  0  0  0  0  0  0  0  0
    9.4126   -5.9853   18.4899 C   0  0  0  0  0  0  0  0  0  0  0  0
    4.2064  -10.3242   18.3302 C   0  0  0  0  0  0  0  0  0  0  0  0
    9.6599   -4.1551   16.4796 N   0  0  0  0  0  0  0  0  0  0  0  0
    7.0644   -6.4612   15.7375 N   0  0  0  0  0  0  0  0  0  0  0  0
    5.3549   -9.6322   18.3190 C   0  0  0  0  0  0  0  0  0  0  0  0
   10.3704   -4.9638   18.6510 C   0  0  0  0  0  0  0  0  0  0  0  0
    5.5935   -8.6419   17.4234 C   0  0  0  0  0  0  0  0  0  0  0  0
   13.0726   -4.6648   23.3394 O   0  0  0  0  0  0  0  0  0  0  0  0
    8.5955   -6.0705   17.3996 C   0  0  0  0  0  0  0  0  0  0  0  0
    4.6223   -8.3832   16.5030 C   0  0  0  0  0  0  0  0  0  0  0  0
   12.4690   -5.2624   19.9024 C   0  0  0  0  0  0  0  0  0  0  0  0
    3.2548   -9.9919   17.4189 C   0  0  0  0  0  0  0  0  0  0  0  0
   12.4767   -4.7393   22.1790 C   0  0  0  0  0  0  0  0  0  0  0  0
    7.8593   -5.3772   15.3569 N   0  0  0  0  0  0  0  0  0  0  0  0
    7.4412   -6.9038   16.9283 C   0  0  0  0  0  0  0  0  0  0  0  0
  1 21  4  0
  1 23  4  0
  2  5  1  0
  2 13  4  0
  2 16  4  0
  3  6  4  0
  3  7  4  0
  4 13  4  0
  4 19  4  0
  4 24  4  0
  6 23  4  0
  7 16  1  0
  7 21  4  0
  8 18  1  0
  9 20  4  0
  9 22  4  0
 10 17  1  0
 10 25  1  0
 11 16  4  0
 11 19  4  0
 12 15  4  0
 12 22  4  0
 14 24  4  0
 14 25  4  0
 15 17  4  0
 17 20  4  0
 18 23  1  0
 19 25  4  0
M  END
$$$$

 Created by Python create_sdf_string function

 25 28  0  0  0  0  0  0  0  0999 V2000
   13.1533   -5.2399   21.0682 C   0  0  0  0  0  0  0  0  0  0  0  0
   10.4729   -4.0295   17.6135 C   0  0  0  0  0  0  0  0  0  0  0  0
   10.4789   -4.3641   20.9564 C   0  0  0  0  0  0  0  0  0  0  0  0
    8.7421   -5.1412   16.3650 C   0  0  0  0  0  0  0  0  0  0  0  0
   11.4353   -2.9204   17.8044 C   0  0  0  0  0  0  0  0  0  0  0  0
   11.1529   -4.3028   22.1277 C   0  0  0  0  0  0  0  0  0  0  0  0
   11.1290   -4.8502   19.8052 C   0  0  0  0  0  0  0  0  0  0  0  0
   12.4329   -4.2159   24.4224 C   0  0  0  0  0  0  0  0  0  0  0  0
    3.4740   -9.0387   16.5022 C   0  0  0  0  0  0  0  0  0  0  0  0
    6.8384   -7.9290   17.5282 N   0  0  0  0  0  0  0  0  0  0  0  0
    9.4126   -5.9853   18.4899 C   0  0  0  0  0  0  0  0  0  0  0  0
    4.2064  -10.3242   18.3302 C   0  0  0  0  0  0  0  0  0  0  0  0
    9.6599   -4.1551   16.4796 N   0  0  0  0  0  0  0  0  0  0  0  0
    7.0644   -6.4612   15.7375 N   0  0  0  0  0  0  0  0  0  0  0  0
    5.3549   -9.6322   18.3190 C   0  0  0  0  0  0  0  0  0  0  0  0
   10.3704   -4.9638   18.6510 C   0  0  0  0  0  0  0  0  0  0  0  0
    5.5935   -8.6419   17.4234 C   0  0  0  0  0  0  0  0  0  0  0  0
   13.0726   -4.6648   23.3394 O   0  0  0  0  0  0  0  0  0  0  0  0
    8.5955   -6.0705   17.3996 C   0  0  0  0  0  0  0  0  0  0  0  0
    4.6223   -8.3832   16.5030 C   0  0  0  0  0  0  0  0  0  0  0  0
   12.4690   -5.2624   19.9024 C   0  0  0  0  0  0  0  0  0  0  0  0
    3.2548   -9.9919   17.4189 C   0  0  0  0  0  0  0  0  0  0  0  0
   12.4767   -4.7393   22.1790 C   0  0  0  0  0  0  0  0  0  0  0  0
    7.8593   -5.3772   15.3569 N   0  0  0  0  0  0  0  0  0  0  0  0
    7.4412   -6.9038   16.9283 C   0  0  0  0  0  0  0  0  0  0  0  0
  1 21  4  0
  1 23  4  0
  2  5  1  0
  2 13  4  0
  2 16  4  0
  3  6  4  0
  3  7  4  0
  4 13  4  0
  4 19  4  0
  4 24  4  0
  6 23  4  0
  7 16  1  0
  7 21  4  0
  8 18  1  0
  9 20  4  0
  9 22  4  0
 10 17  1  0
 10 25  1  0
 11 16  4  0
 11 19  4  0
 12 15  4  0
 12 22  4  0
 14 24  4  0
 14 25  4  0
 15 17  4  0
 17 20  4  0
 18 23  1  0
 19 25  4  0
M  END
$$$$

 Created by Python create_sdf_string function

 25 28  0  0  0  0  0  0  0  0999 V2000
   13.1533   -5.2399   21.0682 C   0  0  0  0  0  0  0  0  0  0  0  0
   10.4729   -4.0295   17.6135 C   0  0  0  0  0  0  0  0  0  0  0  0
   10.4789   -4.3641   20.9564 C   0  0  0  0  0  0  0  0  0  0  0  0
    8.7421   -5.1412   16.3650 C   0  0  0  0  0  0  0  0  0  0  0  0
   11.4353   -2.9204   17.8044 C   0  0  0  0  0  0  0  0  0  0  0  0
   11.1529   -4.3028   22.1277 C   0  0  0  0  0  0  0  0  0  0  0  0
   11.1290   -4.8502   19.8052 C   0  0  0  0  0  0  0  0  0  0  0  0
   12.4329   -4.2159   24.4224 C   0  0  0  0  0  0  0  0  0  0  0  0
    3.4740   -9.0387   16.5022 C   0  0  0  0  0  0  0  0  0  0  0  0
    6.8384   -7.9290   17.5282 N   0  0  0  0  0  0  0  0  0  0  0  0
    9.4126   -5.9853   18.4899 C   0  0  0  0  0  0  0  0  0  0  0  0
    4.2064  -10.3242   18.3302 C   0  0  0  0  0  0  0  0  0  0  0  0
    9.6599   -4.1551   16.4796 N   0  0  0  0  0  0  0  0  0  0  0  0
    7.0644   -6.4612   15.7375 N   0  0  0  0  0  0  0  0  0  0  0  0
    5.3549   -9.6322   18.3190 C   0  0  0  0  0  0  0  0  0  0  0  0
   10.3704   -4.9638   18.6510 C   0  0  0  0  0  0  0  0  0  0  0  0
    5.5935   -8.6419   17.4234 C   0  0  0  0  0  0  0  0  0  0  0  0
   13.0726   -4.6648   23.3394 O   0  0  0  0  0  0  0  0  0  0  0  0
    8.5955   -6.0705   17.3996 C   0  0  0  0  0  0  0  0  0  0  0  0
    4.6223   -8.3832   16.5030 C   0  0  0  0  0  0  0  0  0  0  0  0
   12.4690   -5.2624   19.9024 C   0  0  0  0  0  0  0  0  0  0  0  0
    3.2548   -9.9919   17.4189 C   0  0  0  0  0  0  0  0  0  0  0  0
   12.4767   -4.7393   22.1790 C   0  0  0  0  0  0  0  0  0  0  0  0
    7.8593   -5.3772   15.3569 N   0  0  0  0  0  0  0  0  0  0  0  0
    7.4412   -6.9038   16.9283 C   0  0  0  0  0  0  0  0  0  0  0  0
  1 21  4  0
  1 23  4  0
  2  5  1  0
  2 13  4  0
  2 16  4  0
  3  6  4  0
  3  7  4  0
  4 13  4  0
  4 19  4  0
  4 24  4  0
  6 23  4  0
  7 16  1  0
  7 21  4  0
  8 18  1  0
  9 20  4  0
  9 22  4  0
 10 17  1  0
 10 25  1  0
 11 16  4  0
 11 19  4  0
 12 15  4  0
 12 22  4  0
 14 24  4  0
 14 25  4  0
 15 17  4  0
 17 20  4  0
 18 23  1  0
 19 25  4  0
M  END
$$$$

 Created by Python create_sdf_string function

 25 28  0  0  0  0  0  0  0  0999 V2000
   13.1533   -5.2399   21.0682 C   0  0  0  0  0  0  0  0  0  0  0  0
   10.4729   -4.0295   17.6135 C   0  0  0  0  0  0  0  0  0  0  0  0
   10.4789   -4.3641   20.9564 C   0  0  0  0  0  0  0  0  0  0  0  0
    8.7421   -5.1412   16.3650 C   0  0  0  0  0  0  0  0  0  0  0  0
   11.4353   -2.9204   17.8044 C   0  0  0  0  0  0  0  0  0  0  0  0
   11.1529   -4.3028   22.1277 C   0  0  0  0  0  0  0  0  0  0  0  0
   11.1290   -4.8502   19.8052 C   0  0  0  0  0  0  0  0  0  0  0  0
   12.4329   -4.2159   24.4224 C   0  0  0  0  0  0  0  0  0  0  0  0
    3.4740   -9.0387   16.5022 C   0  0  0  0  0  0  0  0  0  0  0  0
    6.8384   -7.9290   17.5282 N   0  0  0  0  0  0  0  0  0  0  0  0
    9.4126   -5.9853   18.4899 C   0  0  0  0  0  0  0  0  0  0  0  0
    4.2064  -10.3242   18.3302 C   0  0  0  0  0  0  0  0  0  0  0  0
    9.6599   -4.1551   16.4796 N   0  0  0  0  0  0  0  0  0  0  0  0
    7.0644   -6.4612   15.7375 N   0  0  0  0  0  0  0  0  0  0  0  0
    5.3549   -9.6322   18.3190 C   0  0  0  0  0  0  0  0  0  0  0  0
   10.3704   -4.9638   18.6510 C   0  0  0  0  0  0  0  0  0  0  0  0
    5.5935   -8.6419   17.4234 C   0  0  0  0  0  0  0  0  0  0  0  0
   13.0726   -4.6648   23.3394 O   0  0  0  0  0  0  0  0  0  0  0  0
    8.5955   -6.0705   17.3996 C   0  0  0  0  0  0  0  0  0  0  0  0
    4.6223   -8.3832   16.5030 C   0  0  0  0  0  0  0  0  0  0  0  0
   12.4690   -5.2624   19.9024 C   0  0  0  0  0  0  0  0  0  0  0  0
    3.2548   -9.9919   17.4189 C   0  0  0  0  0  0  0  0  0  0  0  0
   12.4767   -4.7393   22.1790 C   0  0  0  0  0  0  0  0  0  0  0  0
    7.8593   -5.3772   15.3569 N   0  0  0  0  0  0  0  0  0  0  0  0
    7.4412   -6.9038   16.9283 C   0  0  0  0  0  0  0  0  0  0  0  0
  1 21  4  0
  1 23  4  0
  2  5  1  0
  2 13  4  0
  2 16  4  0
  3  6  4  0
  3  7  4  0
  4 13  4  0
  4 19  4  0
  4 24  4  0
  6 23  4  0
  7 16  1  0
  7 21  4  0
  8 18  1  0
  9 20  4  0
  9 22  4  0
 10 17  1  0
 10 25  1  0
 11 16  4  0
 11 19  4  0
 12 15  4  0
 12 22  4  0
 14 24  4  0
 14 25  4  0
 15 17  4  0
 17 20  4  0
 18 23  1  0
 19 25  4  0
M  END
$$$$

 Created by Python create_sdf_string function

 25 28  0  0  0  0  0  0  0  0999 V2000
   13.1533   -5.2399   21.0682 C   0  0  0  0  0  0  0  0  0  0  0  0
   10.4729   -4.0295   17.6135 C   0  0  0  0  0  0  0  0  0  0  0  0
   10.4789   -4.3641   20.9564 C   0  0  0  0  0  0  0  0  0  0  0  0
    8.7421   -5.1412   16.3650 C   0  0  0  0  0  0  0  0  0  0  0  0
   11.4353   -2.9204   17.8044 C   0  0  0  0  0  0  0  0  0  0  0  0
   11.1529   -4.3028   22.1277 C   0  0  0  0  0  0  0  0  0  0  0  0
   11.1290   -4.8502   19.8052 C   0  0  0  0  0  0  0  0  0  0  0  0
   12.4329   -4.2159   24.4224 C   0  0  0  0  0  0  0  0  0  0  0  0
    3.4740   -9.0387   16.5022 C   0  0  0  0  0  0  0  0  0  0  0  0
    6.8384   -7.9290   17.5282 N   0  0  0  0  0  0  0  0  0  0  0  0
    9.4126   -5.9853   18.4899 C   0  0  0  0  0  0  0  0  0  0  0  0
    4.2064  -10.3242   18.3302 C   0  0  0  0  0  0  0  0  0  0  0  0
    9.6599   -4.1551   16.4796 N   0  0  0  0  0  0  0  0  0  0  0  0
    7.0644   -6.4612   15.7375 N   0  0  0  0  0  0  0  0  0  0  0  0
    5.3549   -9.6322   18.3190 C   0  0  0  0  0  0  0  0  0  0  0  0
   10.3704   -4.9638   18.6510 C   0  0  0  0  0  0  0  0  0  0  0  0
    5.5935   -8.6419   17.4234 C   0  0  0  0  0  0  0  0  0  0  0  0
   13.0726   -4.6648   23.3394 O   0  0  0  0  0  0  0  0  0  0  0  0
    8.5955   -6.0705   17.3996 C   0  0  0  0  0  0  0  0  0  0  0  0
    4.6223   -8.3832   16.5030 C   0  0  0  0  0  0  0  0  0  0  0  0
   12.4690   -5.2624   19.9024 C   0  0  0  0  0  0  0  0  0  0  0  0
    3.2548   -9.9919   17.4189 C   0  0  0  0  0  0  0  0  0  0  0  0
   12.4767   -4.7393   22.1790 C   0  0  0  0  0  0  0  0  0  0  0  0
    7.8593   -5.3772   15.3569 N   0  0  0  0  0  0  0  0  0  0  0  0
    7.4412   -6.9038   16.9283 C   0  0  0  0  0  0  0  0  0  0  0  0
  1 21  4  0
  1 23  4  0
  2  5  1  0
  2 13  4  0
  2 16  4  0
  3  6  4  0
  3  7  4  0
  4 13  4  0
  4 19  4  0
  4 24  4  0
  6 23  4  0
  7 16  1  0
  7 21  4  0
  8 18  1  0
  9 20  4  0
  9 22  4  0
 10 17  1  0
 10 25  1  0
 11 16  4  0
 11 19  4  0
 12 15  4  0
 12 22  4  0
 14 24  4  0
 14 25  4  0
 15 17  4  0
 17 20  4  0
 18 23  1  0
 19 25  4  0
M  END
$$$$

 Created by Python create_sdf_string function

 25 28  0  0  0  0  0  0  0  0999 V2000
   13.1533   -5.2399   21.0682 C   0  0  0  0  0  0  0  0  0  0  0  0
   10.4729   -4.0295   17.6135 C   0  0  0  0  0  0  0  0  0  0  0  0
   10.4789   -4.3641   20.9564 C   0  0  0  0  0  0  0  0  0  0  0  0
    8.7421   -5.1412   16.3650 C   0  0  0  0  0  0  0  0  0  0  0  0
   11.4353   -2.9204   17.8044 C   0  0  0  0  0  0  0  0  0  0  0  0
   11.1529   -4.3028   22.1277 C   0  0  0  0  0  0  0  0  0  0  0  0
   11.1290   -4.8502   19.8052 C   0  0  0  0  0  0  0  0  0  0  0  0
   12.4329   -4.2159   24.4224 C   0  0  0  0  0  0  0  0  0  0  0  0
    3.4740   -9.0387   16.5022 C   0  0  0  0  0  0  0  0  0  0  0  0
    6.8384   -7.9290   17.5282 N   0  0  0  0  0  0  0  0  0  0  0  0
    9.4126   -5.9853   18.4899 C   0  0  0  0  0  0  0  0  0  0  0  0
    4.2064  -10.3242   18.3302 C   0  0  0  0  0  0  0  0  0  0  0  0
    9.6599   -4.1551   16.4796 N   0  0  0  0  0  0  0  0  0  0  0  0
    7.0644   -6.4612   15.7375 N   0  0  0  0  0  0  0  0  0  0  0  0
    5.3549   -9.6322   18.3190 C   0  0  0  0  0  0  0  0  0  0  0  0
   10.3704   -4.9638   18.6510 C   0  0  0  0  0  0  0  0  0  0  0  0
    5.5935   -8.6419   17.4234 C   0  0  0  0  0  0  0  0  0  0  0  0
   13.0726   -4.6648   23.3394 O   0  0  0  0  0  0  0  0  0  0  0  0
    8.5955   -6.0705   17.3996 C   0  0  0  0  0  0  0  0  0  0  0  0
    4.6223   -8.3832   16.5030 C   0  0  0  0  0  0  0  0  0  0  0  0
   12.4690   -5.2624   19.9024 C   0  0  0  0  0  0  0  0  0  0  0  0
    3.2548   -9.9919   17.4189 C   0  0  0  0  0  0  0  0  0  0  0  0
   12.4767   -4.7393   22.1790 C   0  0  0  0  0  0  0  0  0  0  0  0
    7.8593   -5.3772   15.3569 N   0  0  0  0  0  0  0  0  0  0  0  0
    7.4412   -6.9038   16.9283 C   0  0  0  0  0  0  0  0  0  0  0  0
  1 21  4  0
  1 23  4  0
  2  5  1  0
  2 13  4  0
  2 16  4  0
  3  6  4  0
  3  7  4  0
  4 13  4  0
  4 19  4  0
  4 24  4  0
  6 23  4  0
  7 16  1  0
  7 21  4  0
  8 18  1  0
  9 20  4  0
  9 22  4  0
 10 17  1  0
 10 25  1  0
 11 16  4  0
 11 19  4  0
 12 15  4  0
 12 22  4  0
 14 24  4  0
 14 25  4  0
 15 17  4  0
 17 20  4  0
 18 23  1  0
 19 25  4  0
M  END
$$$$

 Created by Python create_sdf_string function

 25 28  0  0  0  0  0  0  0  0999 V2000
   13.1533   -5.2399   21.0682 C   0  0  0  0  0  0  0  0  0  0  0  0
   10.4729   -4.0295   17.6135 C   0  0  0  0  0  0  0  0  0  0  0  0
   10.4789   -4.3641   20.9564 C   0  0  0  0  0  0  0  0  0  0  0  0
    8.7421   -5.1412   16.3650 C   0  0  0  0  0  0  0  0  0  0  0  0
   11.4353   -2.9204   17.8044 C   0  0  0  0  0  0  0  0  0  0  0  0
   11.1529   -4.3028   22.1277 C   0  0  0  0  0  0  0  0  0  0  0  0
   11.1290   -4.8502   19.8052 C   0  0  0  0  0  0  0  0  0  0  0  0
   12.4329   -4.2159   24.4224 C   0  0  0  0  0  0  0  0  0  0  0  0
    3.4740   -9.0387   16.5022 C   0  0  0  0  0  0  0  0  0  0  0  0
    6.8384   -7.9290   17.5282 N   0  0  0  0  0  0  0  0  0  0  0  0
    9.4126   -5.9853   18.4899 C   0  0  0  0  0  0  0  0  0  0  0  0
    4.2064  -10.3242   18.3302 C   0  0  0  0  0  0  0  0  0  0  0  0
    9.6599   -4.1551   16.4796 N   0  0  0  0  0  0  0  0  0  0  0  0
    7.0644   -6.4612   15.7375 N   0  0  0  0  0  0  0  0  0  0  0  0
    5.3549   -9.6322   18.3190 C   0  0  0  0  0  0  0  0  0  0  0  0
   10.3704   -4.9638   18.6510 C   0  0  0  0  0  0  0  0  0  0  0  0
    5.5935   -8.6419   17.4234 C   0  0  0  0  0  0  0  0  0  0  0  0
   13.0726   -4.6648   23.3394 O   0  0  0  0  0  0  0  0  0  0  0  0
    8.5955   -6.0705   17.3996 C   0  0  0  0  0  0  0  0  0  0  0  0
    4.6223   -8.3832   16.5030 C   0  0  0  0  0  0  0  0  0  0  0  0
   12.4690   -5.2624   19.9024 C   0  0  0  0  0  0  0  0  0  0  0  0
    3.2548   -9.9919   17.4189 C   0  0  0  0  0  0  0  0  0  0  0  0
   12.4767   -4.7393   22.1790 C   0  0  0  0  0  0  0  0  0  0  0  0
    7.8593   -5.3772   15.3569 N   0  0  0  0  0  0  0  0  0  0  0  0
    7.4412   -6.9038   16.9283 C   0  0  0  0  0  0  0  0  0  0  0  0
  1 21  4  0
  1 23  4  0
  2  5  1  0
  2 13  4  0
  2 16  4  0
  3  6  4  0
  3  7  4  0
  4 13  4  0
  4 19  4  0
  4 24  4  0
  6 23  4  0
  7 16  1  0
  7 21  4  0
  8 18  1  0
  9 20  4  0
  9 22  4  0
 10 17  1  0
 10 25  1  0
 11 16  4  0
 11 19  4  0
 12 15  4  0
 12 22  4  0
 14 24  4  0
 14 25  4  0
 15 17  4  0
 17 20  4  0
 18 23  1  0
 19 25  4  0
M  END
$$$$

 Created by Python create_sdf_string function

 25 28  0  0  0  0  0  0  0  0999 V2000
   13.1533   -5.2399   21.0682 C   0  0  0  0  0  0  0  0  0  0  0  0
   10.4729   -4.0295   17.6135 C   0  0  0  0  0  0  0  0  0  0  0  0
   10.4789   -4.3641   20.9564 C   0  0  0  0  0  0  0  0  0  0  0  0
    8.7421   -5.1412   16.3650 C   0  0  0  0  0  0  0  0  0  0  0  0
   11.4353   -2.9204   17.8044 C   0  0  0  0  0  0  0  0  0  0  0  0
   11.1529   -4.3028   22.1277 C   0  0  0  0  0  0  0  0  0  0  0  0
   11.1290   -4.8502   19.8052 C   0  0  0  0  0  0  0  0  0  0  0  0
   12.4329   -4.2159   24.4224 C   0  0  0  0  0  0  0  0  0  0  0  0
    3.4740   -9.0387   16.5022 C   0  0  0  0  0  0  0  0  0  0  0  0
    6.8384   -7.9290   17.5282 N   0  0  0  0  0  0  0  0  0  0  0  0
    9.4126   -5.9853   18.4899 C   0  0  0  0  0  0  0  0  0  0  0  0
    4.2064  -10.3242   18.3302 C   0  0  0  0  0  0  0  0  0  0  0  0
    9.6599   -4.1551   16.4796 N   0  0  0  0  0  0  0  0  0  0  0  0
    7.0644   -6.4612   15.7375 N   0  0  0  0  0  0  0  0  0  0  0  0
    5.3549   -9.6322   18.3190 C   0  0  0  0  0  0  0  0  0  0  0  0
   10.3704   -4.9638   18.6510 C   0  0  0  0  0  0  0  0  0  0  0  0
    5.5935   -8.6419   17.4234 C   0  0  0  0  0  0  0  0  0  0  0  0
   13.0726   -4.6648   23.3394 O   0  0  0  0  0  0  0  0  0  0  0  0
    8.5955   -6.0705   17.3996 C   0  0  0  0  0  0  0  0  0  0  0  0
    4.6223   -8.3832   16.5030 C   0  0  0  0  0  0  0  0  0  0  0  0
   12.4690   -5.2624   19.9024 C   0  0  0  0  0  0  0  0  0  0  0  0
    3.2548   -9.9919   17.4189 C   0  0  0  0  0  0  0  0  0  0  0  0
   12.4767   -4.7393   22.1790 C   0  0  0  0  0  0  0  0  0  0  0  0
    7.8593   -5.3772   15.3569 N   0  0  0  0  0  0  0  0  0  0  0  0
    7.4412   -6.9038   16.9283 C   0  0  0  0  0  0  0  0  0  0  0  0
  1 21  4  0
  1 23  4  0
  2  5  1  0
  2 13  4  0
  2 16  4  0
  3  6  4  0
  3  7  4  0
  4 13  4  0
  4 19  4  0
  4 24  4  0
  6 23  4  0
  7 16  1  0
  7 21  4  0
  8 18  1  0
  9 20  4  0
  9 22  4  0
 10 17  1  0
 10 25  1  0
 11 16  4  0
 11 19  4  0
 12 15  4  0
 12 22  4  0
 14 24  4  0
 14 25  4  0
 15 17  4  0
 17 20  4  0
 18 23  1  0
 19 25  4  0
M  END
$$$$

 Created by Python create_sdf_string function

 25 28  0  0  0  0  0  0  0  0999 V2000
   13.1533   -5.2399   21.0682 C   0  0  0  0  0  0  0  0  0  0  0  0
   10.4729   -4.0295   17.6135 C   0  0  0  0  0  0  0  0  0  0  0  0
   10.4789   -4.3641   20.9564 C   0  0  0  0  0  0  0  0  0  0  0  0
    8.7421   -5.1412   16.3650 C   0  0  0  0  0  0  0  0  0  0  0  0
   11.4353   -2.9204   17.8044 C   0  0  0  0  0  0  0  0  0  0  0  0
   11.1529   -4.3028   22.1277 C   0  0  0  0  0  0  0  0  0  0  0  0
   11.1290   -4.8502   19.8052 C   0  0  0  0  0  0  0  0  0  0  0  0
   12.4329   -4.2159   24.4224 C   0  0  0  0  0  0  0  0  0  0  0  0
    3.4740   -9.0387   16.5022 C   0  0  0  0  0  0  0  0  0  0  0  0
    6.8384   -7.9290   17.5282 N   0  0  0  0  0  0  0  0  0  0  0  0
    9.4126   -5.9853   18.4899 C   0  0  0  0  0  0  0  0  0  0  0  0
    4.2064  -10.3242   18.3302 C   0  0  0  0  0  0  0  0  0  0  0  0
    9.6599   -4.1551   16.4796 N   0  0  0  0  0  0  0  0  0  0  0  0
    7.0644   -6.4612   15.7375 N   0  0  0  0  0  0  0  0  0  0  0  0
    5.3549   -9.6322   18.3190 C   0  0  0  0  0  0  0  0  0  0  0  0
   10.3704   -4.9638   18.6510 C   0  0  0  0  0  0  0  0  0  0  0  0
    5.5935   -8.6419   17.4234 C   0  0  0  0  0  0  0  0  0  0  0  0
   13.0726   -4.6648   23.3394 O   0  0  0  0  0  0  0  0  0  0  0  0
    8.5955   -6.0705   17.3996 C   0  0  0  0  0  0  0  0  0  0  0  0
    4.6223   -8.3832   16.5030 C   0  0  0  0  0  0  0  0  0  0  0  0
   12.4690   -5.2624   19.9024 C   0  0  0  0  0  0  0  0  0  0  0  0
    3.2548   -9.9919   17.4189 C   0  0  0  0  0  0  0  0  0  0  0  0
   12.4767   -4.7393   22.1790 C   0  0  0  0  0  0  0  0  0  0  0  0
    7.8593   -5.3772   15.3569 N   0  0  0  0  0  0  0  0  0  0  0  0
    7.4412   -6.9038   16.9283 C   0  0  0  0  0  0  0  0  0  0  0  0
  1 21  4  0
  1 23  4  0
  2  5  1  0
  2 13  4  0
  2 16  4  0
  3  6  4  0
  3  7  4  0
  4 13  4  0
  4 19  4  0
  4 24  4  0
  6 23  4  0
  7 16  1  0
  7 21  4  0
  8 18  1  0
  9 20  4  0
  9 22  4  0
 10 17  1  0
 10 25  1  0
 11 16  4  0
 11 19  4  0
 12 15  4  0
 12 22  4  0
 14 24  4  0
 14 25  4  0
 15 17  4  0
 17 20  4  0
 18 23  1  0
 19 25  4  0
M  END
$$$$

 Created by Python create_sdf_string function

 25 28  0  0  0  0  0  0  0  0999 V2000
   13.1533   -5.2399   21.0682 C   0  0  0  0  0  0  0  0  0  0  0  0
   10.4729   -4.0295   17.6135 C   0  0  0  0  0  0  0  0  0  0  0  0
   10.4789   -4.3641   20.9564 C   0  0  0  0  0  0  0  0  0  0  0  0
    8.7421   -5.1412   16.3650 C   0  0  0  0  0  0  0  0  0  0  0  0
   11.4353   -2.9204   17.8044 C   0  0  0  0  0  0  0  0  0  0  0  0
   11.1529   -4.3028   22.1277 C   0  0  0  0  0  0  0  0  0  0  0  0
   11.1290   -4.8502   19.8052 C   0  0  0  0  0  0  0  0  0  0  0  0
   12.4329   -4.2159   24.4224 C   0  0  0  0  0  0  0  0  0  0  0  0
    3.4740   -9.0387   16.5022 C   0  0  0  0  0  0  0  0  0  0  0  0
    6.8384   -7.9290   17.5282 N   0  0  0  0  0  0  0  0  0  0  0  0
    9.4126   -5.9853   18.4899 C   0  0  0  0  0  0  0  0  0  0  0  0
    4.2064  -10.3242   18.3302 C   0  0  0  0  0  0  0  0  0  0  0  0
    9.6599   -4.1551   16.4796 N   0  0  0  0  0  0  0  0  0  0  0  0
    7.0644   -6.4612   15.7375 N   0  0  0  0  0  0  0  0  0  0  0  0
    5.3549   -9.6322   18.3190 C   0  0  0  0  0  0  0  0  0  0  0  0
   10.3704   -4.9638   18.6510 C   0  0  0  0  0  0  0  0  0  0  0  0
    5.5935   -8.6419   17.4234 C   0  0  0  0  0  0  0  0  0  0  0  0
   13.0726   -4.6648   23.3394 O   0  0  0  0  0  0  0  0  0  0  0  0
    8.5955   -6.0705   17.3996 C   0  0  0  0  0  0  0  0  0  0  0  0
    4.6223   -8.3832   16.5030 C   0  0  0  0  0  0  0  0  0  0  0  0
   12.4690   -5.2624   19.9024 C   0  0  0  0  0  0  0  0  0  0  0  0
    3.2548   -9.9919   17.4189 C   0  0  0  0  0  0  0  0  0  0  0  0
   12.4767   -4.7393   22.1790 C   0  0  0  0  0  0  0  0  0  0  0  0
    7.8593   -5.3772   15.3569 N   0  0  0  0  0  0  0  0  0  0  0  0
    7.4412   -6.9038   16.9283 C   0  0  0  0  0  0  0  0  0  0  0  0
  1 21  4  0
  1 23  4  0
  2  5  1  0
  2 13  4  0
  2 16  4  0
  3  6  4  0
  3  7  4  0
  4 13  4  0
  4 19  4  0
  4 24  4  0
  6 23  4  0
  7 16  1  0
  7 21  4  0
  8 18  1  0
  9 20  4  0
  9 22  4  0
 10 17  1  0
 10 25  1  0
 11 16  4  0
 11 19  4  0
 12 15  4  0
 12 22  4  0
 14 24  4  0
 14 25  4  0
 15 17  4  0
 17 20  4  0
 18 23  1  0
 19 25  4  0
M  END
$$$$

 Created by Python create_sdf_string function

 25 28  0  0  0  0  0  0  0  0999 V2000
   13.1533   -5.2399   21.0682 C   0  0  0  0  0  0  0  0  0  0  0  0
   10.4729   -4.0295   17.6135 C   0  0  0  0  0  0  0  0  0  0  0  0
   10.4789   -4.3641   20.9564 C   0  0  0  0  0  0  0  0  0  0  0  0
    8.7421   -5.1412   16.3650 C   0  0  0  0  0  0  0  0  0  0  0  0
   11.4353   -2.9204   17.8044 C   0  0  0  0  0  0  0  0  0  0  0  0
   11.1529   -4.3028   22.1277 C   0  0  0  0  0  0  0  0  0  0  0  0
   11.1290   -4.8502   19.8052 C   0  0  0  0  0  0  0  0  0  0  0  0
   12.4329   -4.2159   24.4224 C   0  0  0  0  0  0  0  0  0  0  0  0
    3.4740   -9.0387   16.5022 C   0  0  0  0  0  0  0  0  0  0  0  0
    6.8384   -7.9290   17.5282 N   0  0  0  0  0  0  0  0  0  0  0  0
    9.4126   -5.9853   18.4899 C   0  0  0  0  0  0  0  0  0  0  0  0
    4.2064  -10.3242   18.3302 C   0  0  0  0  0  0  0  0  0  0  0  0
    9.6599   -4.1551   16.4796 N   0  0  0  0  0  0  0  0  0  0  0  0
    7.0644   -6.4612   15.7375 N   0  0  0  0  0  0  0  0  0  0  0  0
    5.3549   -9.6322   18.3190 C   0  0  0  0  0  0  0  0  0  0  0  0
   10.3704   -4.9638   18.6510 C   0  0  0  0  0  0  0  0  0  0  0  0
    5.5935   -8.6419   17.4234 C   0  0  0  0  0  0  0  0  0  0  0  0
   13.0726   -4.6648   23.3394 O   0  0  0  0  0  0  0  0  0  0  0  0
    8.5955   -6.0705   17.3996 C   0  0  0  0  0  0  0  0  0  0  0  0
    4.6223   -8.3832   16.5030 C   0  0  0  0  0  0  0  0  0  0  0  0
   12.4690   -5.2624   19.9024 C   0  0  0  0  0  0  0  0  0  0  0  0
    3.2548   -9.9919   17.4189 C   0  0  0  0  0  0  0  0  0  0  0  0
   12.4767   -4.7393   22.1790 C   0  0  0  0  0  0  0  0  0  0  0  0
    7.8593   -5.3772   15.3569 N   0  0  0  0  0  0  0  0  0  0  0  0
    7.4412   -6.9038   16.9283 C   0  0  0  0  0  0  0  0  0  0  0  0
  1 21  4  0
  1 23  4  0
  2  5  1  0
  2 13  4  0
  2 16  4  0
  3  6  4  0
  3  7  4  0
  4 13  4  0
  4 19  4  0
  4 24  4  0
  6 23  4  0
  7 16  1  0
  7 21  4  0
  8 18  1  0
  9 20  4  0
  9 22  4  0
 10 17  1  0
 10 25  1  0
 11 16  4  0
 11 19  4  0
 12 15  4  0
 12 22  4  0
 14 24  4  0
 14 25  4  0
 15 17  4  0
 17 20  4  0
 18 23  1  0
 19 25  4  0
M  END
$$$$

 Created by Python create_sdf_string function

 25 28  0  0  0  0  0  0  0  0999 V2000
   13.1533   -5.2399   21.0682 C   0  0  0  0  0  0  0  0  0  0  0  0
   10.4729   -4.0295   17.6135 C   0  0  0  0  0  0  0  0  0  0  0  0
   10.4789   -4.3641   20.9564 C   0  0  0  0  0  0  0  0  0  0  0  0
    8.7421   -5.1412   16.3650 C   0  0  0  0  0  0  0  0  0  0  0  0
   11.4353   -2.9204   17.8044 C   0  0  0  0  0  0  0  0  0  0  0  0
   11.1529   -4.3028   22.1277 C   0  0  0  0  0  0  0  0  0  0  0  0
   11.1290   -4.8502   19.8052 C   0  0  0  0  0  0  0  0  0  0  0  0
   12.4329   -4.2159   24.4224 C   0  0  0  0  0  0  0  0  0  0  0  0
    3.4740   -9.0387   16.5022 C   0  0  0  0  0  0  0  0  0  0  0  0
    6.8384   -7.9290   17.5282 N   0  0  0  0  0  0  0  0  0  0  0  0
    9.4126   -5.9853   18.4899 C   0  0  0  0  0  0  0  0  0  0  0  0
    4.2064  -10.3242   18.3302 C   0  0  0  0  0  0  0  0  0  0  0  0
    9.6599   -4.1551   16.4796 N   0  0  0  0  0  0  0  0  0  0  0  0
    7.0644   -6.4612   15.7375 N   0  0  0  0  0  0  0  0  0  0  0  0
    5.3549   -9.6322   18.3190 C   0  0  0  0  0  0  0  0  0  0  0  0
   10.3704   -4.9638   18.6510 C   0  0  0  0  0  0  0  0  0  0  0  0
    5.5935   -8.6419   17.4234 C   0  0  0  0  0  0  0  0  0  0  0  0
   13.0726   -4.6648   23.3394 O   0  0  0  0  0  0  0  0  0  0  0  0
    8.5955   -6.0705   17.3996 C   0  0  0  0  0  0  0  0  0  0  0  0
    4.6223   -8.3832   16.5030 C   0  0  0  0  0  0  0  0  0  0  0  0
   12.4690   -5.2624   19.9024 C   0  0  0  0  0  0  0  0  0  0  0  0
    3.2548   -9.9919   17.4189 C   0  0  0  0  0  0  0  0  0  0  0  0
   12.4767   -4.7393   22.1790 C   0  0  0  0  0  0  0  0  0  0  0  0
    7.8593   -5.3772   15.3569 N   0  0  0  0  0  0  0  0  0  0  0  0
    7.4412   -6.9038   16.9283 C   0  0  0  0  0  0  0  0  0  0  0  0
  1 21  4  0
  1 23  4  0
  2  5  1  0
  2 13  4  0
  2 16  4  0
  3  6  4  0
  3  7  4  0
  4 13  4  0
  4 19  4  0
  4 24  4  0
  6 23  4  0
  7 16  1  0
  7 21  4  0
  8 18  1  0
  9 20  4  0
  9 22  4  0
 10 17  1  0
 10 25  1  0
 11 16  4  0
 11 19  4  0
 12 15  4  0
 12 22  4  0
 14 24  4  0
 14 25  4  0
 15 17  4  0
 17 20  4  0
 18 23  1  0
 19 25  4  0
M  END
$$$$

 Created by Python create_sdf_string function

 25 28  0  0  0  0  0  0  0  0999 V2000
   13.1533   -5.2399   21.0682 C   0  0  0  0  0  0  0  0  0  0  0  0
   10.4729   -4.0295   17.6135 C   0  0  0  0  0  0  0  0  0  0  0  0
   10.4789   -4.3641   20.9564 C   0  0  0  0  0  0  0  0  0  0  0  0
    8.7421   -5.1412   16.3650 C   0  0  0  0  0  0  0  0  0  0  0  0
   11.4353   -2.9204   17.8044 C   0  0  0  0  0  0  0  0  0  0  0  0
   11.1529   -4.3028   22.1277 C   0  0  0  0  0  0  0  0  0  0  0  0
   11.1290   -4.8502   19.8052 C   0  0  0  0  0  0  0  0  0  0  0  0
   12.4329   -4.2159   24.4224 C   0  0  0  0  0  0  0  0  0  0  0  0
    3.4740   -9.0387   16.5022 C   0  0  0  0  0  0  0  0  0  0  0  0
    6.8384   -7.9290   17.5282 N   0  0  0  0  0  0  0  0  0  0  0  0
    9.4126   -5.9853   18.4899 C   0  0  0  0  0  0  0  0  0  0  0  0
    4.2064  -10.3242   18.3302 C   0  0  0  0  0  0  0  0  0  0  0  0
    9.6599   -4.1551   16.4796 N   0  0  0  0  0  0  0  0  0  0  0  0
    7.0644   -6.4612   15.7375 N   0  0  0  0  0  0  0  0  0  0  0  0
    5.3549   -9.6322   18.3190 C   0  0  0  0  0  0  0  0  0  0  0  0
   10.3704   -4.9638   18.6510 C   0  0  0  0  0  0  0  0  0  0  0  0
    5.5935   -8.6419   17.4234 C   0  0  0  0  0  0  0  0  0  0  0  0
   13.0726   -4.6648   23.3394 O   0  0  0  0  0  0  0  0  0  0  0  0
    8.5955   -6.0705   17.3996 C   0  0  0  0  0  0  0  0  0  0  0  0
    4.6223   -8.3832   16.5030 C   0  0  0  0  0  0  0  0  0  0  0  0
   12.4690   -5.2624   19.9024 C   0  0  0  0  0  0  0  0  0  0  0  0
    3.2548   -9.9919   17.4189 C   0  0  0  0  0  0  0  0  0  0  0  0
   12.4767   -4.7393   22.1790 C   0  0  0  0  0  0  0  0  0  0  0  0
    7.8593   -5.3772   15.3569 N   0  0  0  0  0  0  0  0  0  0  0  0
    7.4412   -6.9038   16.9283 C   0  0  0  0  0  0  0  0  0  0  0  0
  1 21  4  0
  1 23  4  0
  2  5  1  0
  2 13  4  0
  2 16  4  0
  3  6  4  0
  3  7  4  0
  4 13  4  0
  4 19  4  0
  4 24  4  0
  6 23  4  0
  7 16  1  0
  7 21  4  0
  8 18  1  0
  9 20  4  0
  9 22  4  0
 10 17  1  0
 10 25  1  0
 11 16  4  0
 11 19  4  0
 12 15  4  0
 12 22  4  0
 14 24  4  0
 14 25  4  0
 15 17  4  0
 17 20  4  0
 18 23  1  0
 19 25  4  0
M  END
$$$$

 Created by Python create_sdf_string function

 25 28  0  0  0  0  0  0  0  0999 V2000
   13.1533   -5.2399   21.0682 C   0  0  0  0  0  0  0  0  0  0  0  0
   10.4729   -4.0295   17.6135 C   0  0  0  0  0  0  0  0  0  0  0  0
   10.4789   -4.3641   20.9564 C   0  0  0  0  0  0  0  0  0  0  0  0
    8.7421   -5.1412   16.3650 C   0  0  0  0  0  0  0  0  0  0  0  0
   11.4353   -2.9204   17.8044 C   0  0  0  0  0  0  0  0  0  0  0  0
   11.1529   -4.3028   22.1277 C   0  0  0  0  0  0  0  0  0  0  0  0
   11.1290   -4.8502   19.8052 C   0  0  0  0  0  0  0  0  0  0  0  0
   12.4329   -4.2159   24.4224 C   0  0  0  0  0  0  0  0  0  0  0  0
    3.4740   -9.0387   16.5022 C   0  0  0  0  0  0  0  0  0  0  0  0
    6.8384   -7.9290   17.5282 N   0  0  0  0  0  0  0  0  0  0  0  0
    9.4126   -5.9853   18.4899 C   0  0  0  0  0  0  0  0  0  0  0  0
    4.2064  -10.3242   18.3302 C   0  0  0  0  0  0  0  0  0  0  0  0
    9.6599   -4.1551   16.4796 N   0  0  0  0  0  0  0  0  0  0  0  0
    7.0644   -6.4612   15.7375 N   0  0  0  0  0  0  0  0  0  0  0  0
    5.3549   -9.6322   18.3190 C   0  0  0  0  0  0  0  0  0  0  0  0
   10.3704   -4.9638   18.6510 C   0  0  0  0  0  0  0  0  0  0  0  0
    5.5935   -8.6419   17.4234 C   0  0  0  0  0  0  0  0  0  0  0  0
   13.0726   -4.6648   23.3394 O   0  0  0  0  0  0  0  0  0  0  0  0
    8.5955   -6.0705   17.3996 C   0  0  0  0  0  0  0  0  0  0  0  0
    4.6223   -8.3832   16.5030 C   0  0  0  0  0  0  0  0  0  0  0  0
   12.4690   -5.2624   19.9024 C   0  0  0  0  0  0  0  0  0  0  0  0
    3.2548   -9.9919   17.4189 C   0  0  0  0  0  0  0  0  0  0  0  0
   12.4767   -4.7393   22.1790 C   0  0  0  0  0  0  0  0  0  0  0  0
    7.8593   -5.3772   15.3569 N   0  0  0  0  0  0  0  0  0  0  0  0
    7.4412   -6.9038   16.9283 C   0  0  0  0  0  0  0  0  0  0  0  0
  1 21  4  0
  1 23  4  0
  2  5  1  0
  2 13  4  0
  2 16  4  0
  3  6  4  0
  3  7  4  0
  4 13  4  0
  4 19  4  0
  4 24  4  0
  6 23  4  0
  7 16  1  0
  7 21  4  0
  8 18  1  0
  9 20  4  0
  9 22  4  0
 10 17  1  0
 10 25  1  0
 11 16  4  0
 11 19  4  0
 12 15  4  0
 12 22  4  0
 14 24  4  0
 14 25  4  0
 15 17  4  0
 17 20  4  0
 18 23  1  0
 19 25  4  0
M  END
$$$$

 Created by Python create_sdf_string function

 25 28  0  0  0  0  0  0  0  0999 V2000
   13.1533   -5.2399   21.0682 C   0  0  0  0  0  0  0  0  0  0  0  0
   10.4729   -4.0295   17.6135 C   0  0  0  0  0  0  0  0  0  0  0  0
   10.4789   -4.3641   20.9564 C   0  0  0  0  0  0  0  0  0  0  0  0
    8.7421   -5.1412   16.3650 C   0  0  0  0  0  0  0  0  0  0  0  0
   11.4353   -2.9204   17.8044 C   0  0  0  0  0  0  0  0  0  0  0  0
   11.1529   -4.3028   22.1277 C   0  0  0  0  0  0  0  0  0  0  0  0
   11.1290   -4.8502   19.8052 C   0  0  0  0  0  0  0  0  0  0  0  0
   12.4329   -4.2159   24.4224 C   0  0  0  0  0  0  0  0  0  0  0  0
    3.4740   -9.0387   16.5022 C   0  0  0  0  0  0  0  0  0  0  0  0
    6.8384   -7.9290   17.5282 N   0  0  0  0  0  0  0  0  0  0  0  0
    9.4126   -5.9853   18.4899 C   0  0  0  0  0  0  0  0  0  0  0  0
    4.2064  -10.3242   18.3302 C   0  0  0  0  0  0  0  0  0  0  0  0
    9.6599   -4.1551   16.4796 N   0  0  0  0  0  0  0  0  0  0  0  0
    7.0644   -6.4612   15.7375 N   0  0  0  0  0  0  0  0  0  0  0  0
    5.3549   -9.6322   18.3190 C   0  0  0  0  0  0  0  0  0  0  0  0
   10.3704   -4.9638   18.6510 C   0  0  0  0  0  0  0  0  0  0  0  0
    5.5935   -8.6419   17.4234 C   0  0  0  0  0  0  0  0  0  0  0  0
   13.0726   -4.6648   23.3394 O   0  0  0  0  0  0  0  0  0  0  0  0
    8.5955   -6.0705   17.3996 C   0  0  0  0  0  0  0  0  0  0  0  0
    4.6223   -8.3832   16.5030 C   0  0  0  0  0  0  0  0  0  0  0  0
   12.4690   -5.2624   19.9024 C   0  0  0  0  0  0  0  0  0  0  0  0
    3.2548   -9.9919   17.4189 C   0  0  0  0  0  0  0  0  0  0  0  0
   12.4767   -4.7393   22.1790 C   0  0  0  0  0  0  0  0  0  0  0  0
    7.8593   -5.3772   15.3569 N   0  0  0  0  0  0  0  0  0  0  0  0
    7.4412   -6.9038   16.9283 C   0  0  0  0  0  0  0  0  0  0  0  0
  1 21  4  0
  1 23  4  0
  2  5  1  0
  2 13  4  0
  2 16  4  0
  3  6  4  0
  3  7  4  0
  4 13  4  0
  4 19  4  0
  4 24  4  0
  6 23  4  0
  7 16  1  0
  7 21  4  0
  8 18  1  0
  9 20  4  0
  9 22  4  0
 10 17  1  0
 10 25  1  0
 11 16  4  0
 11 19  4  0
 12 15  4  0
 12 22  4  0
 14 24  4  0
 14 25  4  0
 15 17  4  0
 17 20  4  0
 18 23  1  0
 19 25  4  0
M  END
$$$$

 Created by Python create_sdf_string function

 25 28  0  0  0  0  0  0  0  0999 V2000
   13.1533   -5.2399   21.0682 C   0  0  0  0  0  0  0  0  0  0  0  0
   10.4729   -4.0295   17.6135 C   0  0  0  0  0  0  0  0  0  0  0  0
   10.4789   -4.3641   20.9564 C   0  0  0  0  0  0  0  0  0  0  0  0
    8.7421   -5.1412   16.3650 C   0  0  0  0  0  0  0  0  0  0  0  0
   11.4353   -2.9204   17.8044 C   0  0  0  0  0  0  0  0  0  0  0  0
   11.1529   -4.3028   22.1277 C   0  0  0  0  0  0  0  0  0  0  0  0
   11.1290   -4.8502   19.8052 C   0  0  0  0  0  0  0  0  0  0  0  0
   12.4329   -4.2159   24.4224 C   0  0  0  0  0  0  0  0  0  0  0  0
    3.4740   -9.0387   16.5022 C   0  0  0  0  0  0  0  0  0  0  0  0
    6.8384   -7.9290   17.5282 N   0  0  0  0  0  0  0  0  0  0  0  0
    9.4126   -5.9853   18.4899 C   0  0  0  0  0  0  0  0  0  0  0  0
    4.2064  -10.3242   18.3302 C   0  0  0  0  0  0  0  0  0  0  0  0
    9.6599   -4.1551   16.4796 N   0  0  0  0  0  0  0  0  0  0  0  0
    7.0644   -6.4612   15.7375 N   0  0  0  0  0  0  0  0  0  0  0  0
    5.3549   -9.6322   18.3190 C   0  0  0  0  0  0  0  0  0  0  0  0
   10.3704   -4.9638   18.6510 C   0  0  0  0  0  0  0  0  0  0  0  0
    5.5935   -8.6419   17.4234 C   0  0  0  0  0  0  0  0  0  0  0  0
   13.0726   -4.6648   23.3394 O   0  0  0  0  0  0  0  0  0  0  0  0
    8.5955   -6.0705   17.3996 C   0  0  0  0  0  0  0  0  0  0  0  0
    4.6223   -8.3832   16.5030 C   0  0  0  0  0  0  0  0  0  0  0  0
   12.4690   -5.2624   19.9024 C   0  0  0  0  0  0  0  0  0  0  0  0
    3.2548   -9.9919   17.4189 C   0  0  0  0  0  0  0  0  0  0  0  0
   12.4767   -4.7393   22.1790 C   0  0  0  0  0  0  0  0  0  0  0  0
    7.8593   -5.3772   15.3569 N   0  0  0  0  0  0  0  0  0  0  0  0
    7.4412   -6.9038   16.9283 C   0  0  0  0  0  0  0  0  0  0  0  0
  1 21  4  0
  1 23  4  0
  2  5  1  0
  2 13  4  0
  2 16  4  0
  3  6  4  0
  3  7  4  0
  4 13  4  0
  4 19  4  0
  4 24  4  0
  6 23  4  0
  7 16  1  0
  7 21  4  0
  8 18  1  0
  9 20  4  0
  9 22  4  0
 10 17  1  0
 10 25  1  0
 11 16  4  0
 11 19  4  0
 12 15  4  0
 12 22  4  0
 14 24  4  0
 14 25  4  0
 15 17  4  0
 17 20  4  0
 18 23  1  0
 19 25  4  0
M  END
$$$$

 Created by Python create_sdf_string function

 25 28  0  0  0  0  0  0  0  0999 V2000
   13.1533   -5.2399   21.0682 C   0  0  0  0  0  0  0  0  0  0  0  0
   10.4729   -4.0295   17.6135 C   0  0  0  0  0  0  0  0  0  0  0  0
   10.4789   -4.3641   20.9564 C   0  0  0  0  0  0  0  0  0  0  0  0
    8.7421   -5.1412   16.3650 C   0  0  0  0  0  0  0  0  0  0  0  0
   11.4353   -2.9204   17.8044 C   0  0  0  0  0  0  0  0  0  0  0  0
   11.1529   -4.3028   22.1277 C   0  0  0  0  0  0  0  0  0  0  0  0
   11.1290   -4.8502   19.8052 C   0  0  0  0  0  0  0  0  0  0  0  0
   12.4329   -4.2159   24.4224 C   0  0  0  0  0  0  0  0  0  0  0  0
    3.4740   -9.0387   16.5022 C   0  0  0  0  0  0  0  0  0  0  0  0
    6.8384   -7.9290   17.5282 N   0  0  0  0  0  0  0  0  0  0  0  0
    9.4126   -5.9853   18.4899 C   0  0  0  0  0  0  0  0  0  0  0  0
    4.2064  -10.3242   18.3302 C   0  0  0  0  0  0  0  0  0  0  0  0
    9.6599   -4.1551   16.4796 N   0  0  0  0  0  0  0  0  0  0  0  0
    7.0644   -6.4612   15.7375 N   0  0  0  0  0  0  0  0  0  0  0  0
    5.3549   -9.6322   18.3190 C   0  0  0  0  0  0  0  0  0  0  0  0
   10.3704   -4.9638   18.6510 C   0  0  0  0  0  0  0  0  0  0  0  0
    5.5935   -8.6419   17.4234 C   0  0  0  0  0  0  0  0  0  0  0  0
   13.0726   -4.6648   23.3394 O   0  0  0  0  0  0  0  0  0  0  0  0
    8.5955   -6.0705   17.3996 C   0  0  0  0  0  0  0  0  0  0  0  0
    4.6223   -8.3832   16.5030 C   0  0  0  0  0  0  0  0  0  0  0  0
   12.4690   -5.2624   19.9024 C   0  0  0  0  0  0  0  0  0  0  0  0
    3.2548   -9.9919   17.4189 C   0  0  0  0  0  0  0  0  0  0  0  0
   12.4767   -4.7393   22.1790 C   0  0  0  0  0  0  0  0  0  0  0  0
    7.8593   -5.3772   15.3569 N   0  0  0  0  0  0  0  0  0  0  0  0
    7.4412   -6.9038   16.9283 C   0  0  0  0  0  0  0  0  0  0  0  0
  1 21  4  0
  1 23  4  0
  2  5  1  0
  2 13  4  0
  2 16  4  0
  3  6  4  0
  3  7  4  0
  4 13  4  0
  4 19  4  0
  4 24  4  0
  6 23  4  0
  7 16  1  0
  7 21  4  0
  8 18  1  0
  9 20  4  0
  9 22  4  0
 10 17  1  0
 10 25  1  0
 11 16  4  0
 11 19  4  0
 12 15  4  0
 12 22  4  0
 14 24  4  0
 14 25  4  0
 15 17  4  0
 17 20  4  0
 18 23  1  0
 19 25  4  0
M  END
$$$$

 Created by Python create_sdf_string function

 25 28  0  0  0  0  0  0  0  0999 V2000
   13.1533   -5.2399   21.0682 C   0  0  0  0  0  0  0  0  0  0  0  0
   10.4729   -4.0295   17.6135 C   0  0  0  0  0  0  0  0  0  0  0  0
   10.4789   -4.3641   20.9564 C   0  0  0  0  0  0  0  0  0  0  0  0
    8.7421   -5.1412   16.3650 C   0  0  0  0  0  0  0  0  0  0  0  0
   11.4353   -2.9204   17.8044 C   0  0  0  0  0  0  0  0  0  0  0  0
   11.1529   -4.3028   22.1277 C   0  0  0  0  0  0  0  0  0  0  0  0
   11.1290   -4.8502   19.8052 C   0  0  0  0  0  0  0  0  0  0  0  0
   12.4329   -4.2159   24.4224 C   0  0  0  0  0  0  0  0  0  0  0  0
    3.4740   -9.0387   16.5022 C   0  0  0  0  0  0  0  0  0  0  0  0
    6.8384   -7.9290   17.5282 N   0  0  0  0  0  0  0  0  0  0  0  0
    9.4126   -5.9853   18.4899 C   0  0  0  0  0  0  0  0  0  0  0  0
    4.2064  -10.3242   18.3302 C   0  0  0  0  0  0  0  0  0  0  0  0
    9.6599   -4.1551   16.4796 N   0  0  0  0  0  0  0  0  0  0  0  0
    7.0644   -6.4612   15.7375 N   0  0  0  0  0  0  0  0  0  0  0  0
    5.3549   -9.6322   18.3190 C   0  0  0  0  0  0  0  0  0  0  0  0
   10.3704   -4.9638   18.6510 C   0  0  0  0  0  0  0  0  0  0  0  0
    5.5935   -8.6419   17.4234 C   0  0  0  0  0  0  0  0  0  0  0  0
   13.0726   -4.6648   23.3394 O   0  0  0  0  0  0  0  0  0  0  0  0
    8.5955   -6.0705   17.3996 C   0  0  0  0  0  0  0  0  0  0  0  0
    4.6223   -8.3832   16.5030 C   0  0  0  0  0  0  0  0  0  0  0  0
   12.4690   -5.2624   19.9024 C   0  0  0  0  0  0  0  0  0  0  0  0
    3.2548   -9.9919   17.4189 C   0  0  0  0  0  0  0  0  0  0  0  0
   12.4767   -4.7393   22.1790 C   0  0  0  0  0  0  0  0  0  0  0  0
    7.8593   -5.3772   15.3569 N   0  0  0  0  0  0  0  0  0  0  0  0
    7.4412   -6.9038   16.9283 C   0  0  0  0  0  0  0  0  0  0  0  0
  1 21  4  0
  1 23  4  0
  2  5  1  0
  2 13  4  0
  2 16  4  0
  3  6  4  0
  3  7  4  0
  4 13  4  0
  4 19  4  0
  4 24  4  0
  6 23  4  0
  7 16  1  0
  7 21  4  0
  8 18  1  0
  9 20  4  0
  9 22  4  0
 10 17  1  0
 10 25  1  0
 11 16  4  0
 11 19  4  0
 12 15  4  0
 12 22  4  0
 14 24  4  0
 14 25  4  0
 15 17  4  0
 17 20  4  0
 18 23  1  0
 19 25  4  0
M  END
$$$$

 Created by Python create_sdf_string function

 25 28  0  0  0  0  0  0  0  0999 V2000
   13.1533   -5.2399   21.0682 C   0  0  0  0  0  0  0  0  0  0  0  0
   10.4729   -4.0295   17.6135 C   0  0  0  0  0  0  0  0  0  0  0  0
   10.4789   -4.3641   20.9564 C   0  0  0  0  0  0  0  0  0  0  0  0
    8.7421   -5.1412   16.3650 C   0  0  0  0  0  0  0  0  0  0  0  0
   11.4353   -2.9204   17.8044 C   0  0  0  0  0  0  0  0  0  0  0  0
   11.1529   -4.3028   22.1277 C   0  0  0  0  0  0  0  0  0  0  0  0
   11.1290   -4.8502   19.8052 C   0  0  0  0  0  0  0  0  0  0  0  0
   12.4329   -4.2159   24.4224 C   0  0  0  0  0  0  0  0  0  0  0  0
    3.4740   -9.0387   16.5022 C   0  0  0  0  0  0  0  0  0  0  0  0
    6.8384   -7.9290   17.5282 N   0  0  0  0  0  0  0  0  0  0  0  0
    9.4126   -5.9853   18.4899 C   0  0  0  0  0  0  0  0  0  0  0  0
    4.2064  -10.3242   18.3302 C   0  0  0  0  0  0  0  0  0  0  0  0
    9.6599   -4.1551   16.4796 N   0  0  0  0  0  0  0  0  0  0  0  0
    7.0644   -6.4612   15.7375 N   0  0  0  0  0  0  0  0  0  0  0  0
    5.3549   -9.6322   18.3190 C   0  0  0  0  0  0  0  0  0  0  0  0
   10.3704   -4.9638   18.6510 C   0  0  0  0  0  0  0  0  0  0  0  0
    5.5935   -8.6419   17.4234 C   0  0  0  0  0  0  0  0  0  0  0  0
   13.0726   -4.6648   23.3394 O   0  0  0  0  0  0  0  0  0  0  0  0
    8.5955   -6.0705   17.3996 C   0  0  0  0  0  0  0  0  0  0  0  0
    4.6223   -8.3832   16.5030 C   0  0  0  0  0  0  0  0  0  0  0  0
   12.4690   -5.2624   19.9024 C   0  0  0  0  0  0  0  0  0  0  0  0
    3.2548   -9.9919   17.4189 C   0  0  0  0  0  0  0  0  0  0  0  0
   12.4767   -4.7393   22.1790 C   0  0  0  0  0  0  0  0  0  0  0  0
    7.8593   -5.3772   15.3569 N   0  0  0  0  0  0  0  0  0  0  0  0
    7.4412   -6.9038   16.9283 C   0  0  0  0  0  0  0  0  0  0  0  0
  1 21  4  0
  1 23  4  0
  2  5  1  0
  2 13  4  0
  2 16  4  0
  3  6  4  0
  3  7  4  0
  4 13  4  0
  4 19  4  0
  4 24  4  0
  6 23  4  0
  7 16  1  0
  7 21  4  0
  8 18  1  0
  9 20  4  0
  9 22  4  0
 10 17  1  0
 10 25  1  0
 11 16  4  0
 11 19  4  0
 12 15  4  0
 12 22  4  0
 14 24  4  0
 14 25  4  0
 15 17  4  0
 17 20  4  0
 18 23  1  0
 19 25  4  0
M  END
$$$$

 Created by Python create_sdf_string function

 25 28  0  0  0  0  0  0  0  0999 V2000
   13.1533   -5.2399   21.0682 C   0  0  0  0  0  0  0  0  0  0  0  0
   10.4729   -4.0295   17.6135 C   0  0  0  0  0  0  0  0  0  0  0  0
   10.4789   -4.3641   20.9564 C   0  0  0  0  0  0  0  0  0  0  0  0
    8.7421   -5.1412   16.3650 C   0  0  0  0  0  0  0  0  0  0  0  0
   11.4353   -2.9204   17.8044 C   0  0  0  0  0  0  0  0  0  0  0  0
   11.1529   -4.3028   22.1277 C   0  0  0  0  0  0  0  0  0  0  0  0
   11.1290   -4.8502   19.8052 C   0  0  0  0  0  0  0  0  0  0  0  0
   12.4329   -4.2159   24.4224 C   0  0  0  0  0  0  0  0  0  0  0  0
    3.4740   -9.0387   16.5022 C   0  0  0  0  0  0  0  0  0  0  0  0
    6.8384   -7.9290   17.5282 N   0  0  0  0  0  0  0  0  0  0  0  0
    9.4126   -5.9853   18.4899 C   0  0  0  0  0  0  0  0  0  0  0  0
    4.2064  -10.3242   18.3302 C   0  0  0  0  0  0  0  0  0  0  0  0
    9.6599   -4.1551   16.4796 N   0  0  0  0  0  0  0  0  0  0  0  0
    7.0644   -6.4612   15.7375 N   0  0  0  0  0  0  0  0  0  0  0  0
    5.3549   -9.6322   18.3190 C   0  0  0  0  0  0  0  0  0  0  0  0
   10.3704   -4.9638   18.6510 C   0  0  0  0  0  0  0  0  0  0  0  0
    5.5935   -8.6419   17.4234 C   0  0  0  0  0  0  0  0  0  0  0  0
   13.0726   -4.6648   23.3394 O   0  0  0  0  0  0  0  0  0  0  0  0
    8.5955   -6.0705   17.3996 C   0  0  0  0  0  0  0  0  0  0  0  0
    4.6223   -8.3832   16.5030 C   0  0  0  0  0  0  0  0  0  0  0  0
   12.4690   -5.2624   19.9024 C   0  0  0  0  0  0  0  0  0  0  0  0
    3.2548   -9.9919   17.4189 C   0  0  0  0  0  0  0  0  0  0  0  0
   12.4767   -4.7393   22.1790 C   0  0  0  0  0  0  0  0  0  0  0  0
    7.8593   -5.3772   15.3569 N   0  0  0  0  0  0  0  0  0  0  0  0
    7.4412   -6.9038   16.9283 C   0  0  0  0  0  0  0  0  0  0  0  0
  1 21  4  0
  1 23  4  0
  2  5  1  0
  2 13  4  0
  2 16  4  0
  3  6  4  0
  3  7  4  0
  4 13  4  0
  4 19  4  0
  4 24  4  0
  6 23  4  0
  7 16  1  0
  7 21  4  0
  8 18  1  0
  9 20  4  0
  9 22  4  0
 10 17  1  0
 10 25  1  0
 11 16  4  0
 11 19  4  0
 12 15  4  0
 12 22  4  0
 14 24  4  0
 14 25  4  0
 15 17  4  0
 17 20  4  0
 18 23  1  0
 19 25  4  0
M  END
$$$$

 Created by Python create_sdf_string function

 25 28  0  0  0  0  0  0  0  0999 V2000
   13.1533   -5.2399   21.0682 C   0  0  0  0  0  0  0  0  0  0  0  0
   10.4729   -4.0295   17.6135 C   0  0  0  0  0  0  0  0  0  0  0  0
   10.4789   -4.3641   20.9564 C   0  0  0  0  0  0  0  0  0  0  0  0
    8.7421   -5.1412   16.3650 C   0  0  0  0  0  0  0  0  0  0  0  0
   11.4353   -2.9204   17.8044 C   0  0  0  0  0  0  0  0  0  0  0  0
   11.1529   -4.3028   22.1277 C   0  0  0  0  0  0  0  0  0  0  0  0
   11.1290   -4.8502   19.8052 C   0  0  0  0  0  0  0  0  0  0  0  0
   12.4329   -4.2159   24.4224 C   0  0  0  0  0  0  0  0  0  0  0  0
    3.4740   -9.0387   16.5022 C   0  0  0  0  0  0  0  0  0  0  0  0
    6.8384   -7.9290   17.5282 N   0  0  0  0  0  0  0  0  0  0  0  0
    9.4126   -5.9853   18.4899 C   0  0  0  0  0  0  0  0  0  0  0  0
    4.2064  -10.3242   18.3302 C   0  0  0  0  0  0  0  0  0  0  0  0
    9.6599   -4.1551   16.4796 N   0  0  0  0  0  0  0  0  0  0  0  0
    7.0644   -6.4612   15.7375 N   0  0  0  0  0  0  0  0  0  0  0  0
    5.3549   -9.6322   18.3190 C   0  0  0  0  0  0  0  0  0  0  0  0
   10.3704   -4.9638   18.6510 C   0  0  0  0  0  0  0  0  0  0  0  0
    5.5935   -8.6419   17.4234 C   0  0  0  0  0  0  0  0  0  0  0  0
   13.0726   -4.6648   23.3394 O   0  0  0  0  0  0  0  0  0  0  0  0
    8.5955   -6.0705   17.3996 C   0  0  0  0  0  0  0  0  0  0  0  0
    4.6223   -8.3832   16.5030 C   0  0  0  0  0  0  0  0  0  0  0  0
   12.4690   -5.2624   19.9024 C   0  0  0  0  0  0  0  0  0  0  0  0
    3.2548   -9.9919   17.4189 C   0  0  0  0  0  0  0  0  0  0  0  0
   12.4767   -4.7393   22.1790 C   0  0  0  0  0  0  0  0  0  0  0  0
    7.8593   -5.3772   15.3569 N   0  0  0  0  0  0  0  0  0  0  0  0
    7.4412   -6.9038   16.9283 C   0  0  0  0  0  0  0  0  0  0  0  0
  1 21  4  0
  1 23  4  0
  2  5  1  0
  2 13  4  0
  2 16  4  0
  3  6  4  0
  3  7  4  0
  4 13  4  0
  4 19  4  0
  4 24  4  0
  6 23  4  0
  7 16  1  0
  7 21  4  0
  8 18  1  0
  9 20  4  0
  9 22  4  0
 10 17  1  0
 10 25  1  0
 11 16  4  0
 11 19  4  0
 12 15  4  0
 12 22  4  0
 14 24  4  0
 14 25  4  0
 15 17  4  0
 17 20  4  0
 18 23  1  0
 19 25  4  0
M  END
$$$$

 Created by Python create_sdf_string function

 25 28  0  0  0  0  0  0  0  0999 V2000
   13.1533   -5.2399   21.0682 C   0  0  0  0  0  0  0  0  0  0  0  0
   10.4729   -4.0295   17.6135 C   0  0  0  0  0  0  0  0  0  0  0  0
   10.4789   -4.3641   20.9564 C   0  0  0  0  0  0  0  0  0  0  0  0
    8.7421   -5.1412   16.3650 C   0  0  0  0  0  0  0  0  0  0  0  0
   11.4353   -2.9204   17.8044 C   0  0  0  0  0  0  0  0  0  0  0  0
   11.1529   -4.3028   22.1277 C   0  0  0  0  0  0  0  0  0  0  0  0
   11.1290   -4.8502   19.8052 C   0  0  0  0  0  0  0  0  0  0  0  0
   12.4329   -4.2159   24.4224 C   0  0  0  0  0  0  0  0  0  0  0  0
    3.4740   -9.0387   16.5022 C   0  0  0  0  0  0  0  0  0  0  0  0
    6.8384   -7.9290   17.5282 N   0  0  0  0  0  0  0  0  0  0  0  0
    9.4126   -5.9853   18.4899 C   0  0  0  0  0  0  0  0  0  0  0  0
    4.2064  -10.3242   18.3302 C   0  0  0  0  0  0  0  0  0  0  0  0
    9.6599   -4.1551   16.4796 N   0  0  0  0  0  0  0  0  0  0  0  0
    7.0644   -6.4612   15.7375 N   0  0  0  0  0  0  0  0  0  0  0  0
    5.3549   -9.6322   18.3190 C   0  0  0  0  0  0  0  0  0  0  0  0
   10.3704   -4.9638   18.6510 C   0  0  0  0  0  0  0  0  0  0  0  0
    5.5935   -8.6419   17.4234 C   0  0  0  0  0  0  0  0  0  0  0  0
   13.0726   -4.6648   23.3394 O   0  0  0  0  0  0  0  0  0  0  0  0
    8.5955   -6.0705   17.3996 C   0  0  0  0  0  0  0  0  0  0  0  0
    4.6223   -8.3832   16.5030 C   0  0  0  0  0  0  0  0  0  0  0  0
   12.4690   -5.2624   19.9024 C   0  0  0  0  0  0  0  0  0  0  0  0
    3.2548   -9.9919   17.4189 C   0  0  0  0  0  0  0  0  0  0  0  0
   12.4767   -4.7393   22.1790 C   0  0  0  0  0  0  0  0  0  0  0  0
    7.8593   -5.3772   15.3569 N   0  0  0  0  0  0  0  0  0  0  0  0
    7.4412   -6.9038   16.9283 C   0  0  0  0  0  0  0  0  0  0  0  0
  1 21  4  0
  1 23  4  0
  2  5  1  0
  2 13  4  0
  2 16  4  0
  3  6  4  0
  3  7  4  0
  4 13  4  0
  4 19  4  0
  4 24  4  0
  6 23  4  0
  7 16  1  0
  7 21  4  0
  8 18  1  0
  9 20  4  0
  9 22  4  0
 10 17  1  0
 10 25  1  0
 11 16  4  0
 11 19  4  0
 12 15  4  0
 12 22  4  0
 14 24  4  0
 14 25  4  0
 15 17  4  0
 17 20  4  0
 18 23  1  0
 19 25  4  0
M  END
$$$$

 Created by Python create_sdf_string function

 25 28  0  0  0  0  0  0  0  0999 V2000
   13.1533   -5.2399   21.0682 C   0  0  0  0  0  0  0  0  0  0  0  0
   10.4729   -4.0295   17.6135 C   0  0  0  0  0  0  0  0  0  0  0  0
   10.4789   -4.3641   20.9564 C   0  0  0  0  0  0  0  0  0  0  0  0
    8.7421   -5.1412   16.3650 C   0  0  0  0  0  0  0  0  0  0  0  0
   11.4353   -2.9204   17.8044 C   0  0  0  0  0  0  0  0  0  0  0  0
   11.1529   -4.3028   22.1277 C   0  0  0  0  0  0  0  0  0  0  0  0
   11.1290   -4.8502   19.8052 C   0  0  0  0  0  0  0  0  0  0  0  0
   12.4329   -4.2159   24.4224 C   0  0  0  0  0  0  0  0  0  0  0  0
    3.4740   -9.0387   16.5022 C   0  0  0  0  0  0  0  0  0  0  0  0
    6.8384   -7.9290   17.5282 N   0  0  0  0  0  0  0  0  0  0  0  0
    9.4126   -5.9853   18.4899 C   0  0  0  0  0  0  0  0  0  0  0  0
    4.2064  -10.3242   18.3302 C   0  0  0  0  0  0  0  0  0  0  0  0
    9.6599   -4.1551   16.4796 N   0  0  0  0  0  0  0  0  0  0  0  0
    7.0644   -6.4612   15.7375 N   0  0  0  0  0  0  0  0  0  0  0  0
    5.3549   -9.6322   18.3190 C   0  0  0  0  0  0  0  0  0  0  0  0
   10.3704   -4.9638   18.6510 C   0  0  0  0  0  0  0  0  0  0  0  0
    5.5935   -8.6419   17.4234 C   0  0  0  0  0  0  0  0  0  0  0  0
   13.0726   -4.6648   23.3394 O   0  0  0  0  0  0  0  0  0  0  0  0
    8.5955   -6.0705   17.3996 C   0  0  0  0  0  0  0  0  0  0  0  0
    4.6223   -8.3832   16.5030 C   0  0  0  0  0  0  0  0  0  0  0  0
   12.4690   -5.2624   19.9024 C   0  0  0  0  0  0  0  0  0  0  0  0
    3.2548   -9.9919   17.4189 C   0  0  0  0  0  0  0  0  0  0  0  0
   12.4767   -4.7393   22.1790 C   0  0  0  0  0  0  0  0  0  0  0  0
    7.8593   -5.3772   15.3569 N   0  0  0  0  0  0  0  0  0  0  0  0
    7.4412   -6.9038   16.9283 C   0  0  0  0  0  0  0  0  0  0  0  0
  1 21  4  0
  1 23  4  0
  2  5  1  0
  2 13  4  0
  2 16  4  0
  3  6  4  0
  3  7  4  0
  4 13  4  0
  4 19  4  0
  4 24  4  0
  6 23  4  0
  7 16  1  0
  7 21  4  0
  8 18  1  0
  9 20  4  0
  9 22  4  0
 10 17  1  0
 10 25  1  0
 11 16  4  0
 11 19  4  0
 12 15  4  0
 12 22  4  0
 14 24  4  0
 14 25  4  0
 15 17  4  0
 17 20  4  0
 18 23  1  0
 19 25  4  0
M  END
$$$$

 Created by Python create_sdf_string function

 25 28  0  0  0  0  0  0  0  0999 V2000
   13.1533   -5.2399   21.0682 C   0  0  0  0  0  0  0  0  0  0  0  0
   10.4729   -4.0295   17.6135 C   0  0  0  0  0  0  0  0  0  0  0  0
   10.4789   -4.3641   20.9564 C   0  0  0  0  0  0  0  0  0  0  0  0
    8.7421   -5.1412   16.3650 C   0  0  0  0  0  0  0  0  0  0  0  0
   11.4353   -2.9204   17.8044 C   0  0  0  0  0  0  0  0  0  0  0  0
   11.1529   -4.3028   22.1277 C   0  0  0  0  0  0  0  0  0  0  0  0
   11.1290   -4.8502   19.8052 C   0  0  0  0  0  0  0  0  0  0  0  0
   12.4329   -4.2159   24.4224 C   0  0  0  0  0  0  0  0  0  0  0  0
    3.4740   -9.0387   16.5022 C   0  0  0  0  0  0  0  0  0  0  0  0
    6.8384   -7.9290   17.5282 N   0  0  0  0  0  0  0  0  0  0  0  0
    9.4126   -5.9853   18.4899 C   0  0  0  0  0  0  0  0  0  0  0  0
    4.2064  -10.3242   18.3302 C   0  0  0  0  0  0  0  0  0  0  0  0
    9.6599   -4.1551   16.4796 N   0  0  0  0  0  0  0  0  0  0  0  0
    7.0644   -6.4612   15.7375 N   0  0  0  0  0  0  0  0  0  0  0  0
    5.3549   -9.6322   18.3190 C   0  0  0  0  0  0  0  0  0  0  0  0
   10.3704   -4.9638   18.6510 C   0  0  0  0  0  0  0  0  0  0  0  0
    5.5935   -8.6419   17.4234 C   0  0  0  0  0  0  0  0  0  0  0  0
   13.0726   -4.6648   23.3394 O   0  0  0  0  0  0  0  0  0  0  0  0
    8.5955   -6.0705   17.3996 C   0  0  0  0  0  0  0  0  0  0  0  0
    4.6223   -8.3832   16.5030 C   0  0  0  0  0  0  0  0  0  0  0  0
   12.4690   -5.2624   19.9024 C   0  0  0  0  0  0  0  0  0  0  0  0
    3.2548   -9.9919   17.4189 C   0  0  0  0  0  0  0  0  0  0  0  0
   12.4767   -4.7393   22.1790 C   0  0  0  0  0  0  0  0  0  0  0  0
    7.8593   -5.3772   15.3569 N   0  0  0  0  0  0  0  0  0  0  0  0
    7.4412   -6.9038   16.9283 C   0  0  0  0  0  0  0  0  0  0  0  0
  1 21  4  0
  1 23  4  0
  2  5  1  0
  2 13  4  0
  2 16  4  0
  3  6  4  0
  3  7  4  0
  4 13  4  0
  4 19  4  0
  4 24  4  0
  6 23  4  0
  7 16  1  0
  7 21  4  0
  8 18  1  0
  9 20  4  0
  9 22  4  0
 10 17  1  0
 10 25  1  0
 11 16  4  0
 11 19  4  0
 12 15  4  0
 12 22  4  0
 14 24  4  0
 14 25  4  0
 15 17  4  0
 17 20  4  0
 18 23  1  0
 19 25  4  0
M  END
$$$$

 Created by Python create_sdf_string function

 25 28  0  0  0  0  0  0  0  0999 V2000
   13.1533   -5.2399   21.0682 C   0  0  0  0  0  0  0  0  0  0  0  0
   10.4729   -4.0295   17.6135 C   0  0  0  0  0  0  0  0  0  0  0  0
   10.4789   -4.3641   20.9564 C   0  0  0  0  0  0  0  0  0  0  0  0
    8.7421   -5.1412   16.3650 C   0  0  0  0  0  0  0  0  0  0  0  0
   11.4353   -2.9204   17.8044 C   0  0  0  0  0  0  0  0  0  0  0  0
   11.1529   -4.3028   22.1277 C   0  0  0  0  0  0  0  0  0  0  0  0
   11.1290   -4.8502   19.8052 C   0  0  0  0  0  0  0  0  0  0  0  0
   12.4329   -4.2159   24.4224 C   0  0  0  0  0  0  0  0  0  0  0  0
    3.4740   -9.0387   16.5022 C   0  0  0  0  0  0  0  0  0  0  0  0
    6.8384   -7.9290   17.5282 N   0  0  0  0  0  0  0  0  0  0  0  0
    9.4126   -5.9853   18.4899 C   0  0  0  0  0  0  0  0  0  0  0  0
    4.2064  -10.3242   18.3302 C   0  0  0  0  0  0  0  0  0  0  0  0
    9.6599   -4.1551   16.4796 N   0  0  0  0  0  0  0  0  0  0  0  0
    7.0644   -6.4612   15.7375 N   0  0  0  0  0  0  0  0  0  0  0  0
    5.3549   -9.6322   18.3190 C   0  0  0  0  0  0  0  0  0  0  0  0
   10.3704   -4.9638   18.6510 C   0  0  0  0  0  0  0  0  0  0  0  0
    5.5935   -8.6419   17.4234 C   0  0  0  0  0  0  0  0  0  0  0  0
   13.0726   -4.6648   23.3394 O   0  0  0  0  0  0  0  0  0  0  0  0
    8.5955   -6.0705   17.3996 C   0  0  0  0  0  0  0  0  0  0  0  0
    4.6223   -8.3832   16.5030 C   0  0  0  0  0  0  0  0  0  0  0  0
   12.4690   -5.2624   19.9024 C   0  0  0  0  0  0  0  0  0  0  0  0
    3.2548   -9.9919   17.4189 C   0  0  0  0  0  0  0  0  0  0  0  0
   12.4767   -4.7393   22.1790 C   0  0  0  0  0  0  0  0  0  0  0  0
    7.8593   -5.3772   15.3569 N   0  0  0  0  0  0  0  0  0  0  0  0
    7.4412   -6.9038   16.9283 C   0  0  0  0  0  0  0  0  0  0  0  0
  1 21  4  0
  1 23  4  0
  2  5  1  0
  2 13  4  0
  2 16  4  0
  3  6  4  0
  3  7  4  0
  4 13  4  0
  4 19  4  0
  4 24  4  0
  6 23  4  0
  7 16  1  0
  7 21  4  0
  8 18  1  0
  9 20  4  0
  9 22  4  0
 10 17  1  0
 10 25  1  0
 11 16  4  0
 11 19  4  0
 12 15  4  0
 12 22  4  0
 14 24  4  0
 14 25  4  0
 15 17  4  0
 17 20  4  0
 18 23  1  0
 19 25  4  0
M  END
$$$$

 Created by Python create_sdf_string function

 25 28  0  0  0  0  0  0  0  0999 V2000
   13.1533   -5.2399   21.0682 C   0  0  0  0  0  0  0  0  0  0  0  0
   10.4729   -4.0295   17.6135 C   0  0  0  0  0  0  0  0  0  0  0  0
   10.4789   -4.3641   20.9564 C   0  0  0  0  0  0  0  0  0  0  0  0
    8.7421   -5.1412   16.3650 C   0  0  0  0  0  0  0  0  0  0  0  0
   11.4353   -2.9204   17.8044 C   0  0  0  0  0  0  0  0  0  0  0  0
   11.1529   -4.3028   22.1277 C   0  0  0  0  0  0  0  0  0  0  0  0
   11.1290   -4.8502   19.8052 C   0  0  0  0  0  0  0  0  0  0  0  0
   12.4329   -4.2159   24.4224 C   0  0  0  0  0  0  0  0  0  0  0  0
    3.4740   -9.0387   16.5022 C   0  0  0  0  0  0  0  0  0  0  0  0
    6.8384   -7.9290   17.5282 N   0  0  0  0  0  0  0  0  0  0  0  0
    9.4126   -5.9853   18.4899 C   0  0  0  0  0  0  0  0  0  0  0  0
    4.2064  -10.3242   18.3302 C   0  0  0  0  0  0  0  0  0  0  0  0
    9.6599   -4.1551   16.4796 N   0  0  0  0  0  0  0  0  0  0  0  0
    7.0644   -6.4612   15.7375 N   0  0  0  0  0  0  0  0  0  0  0  0
    5.3549   -9.6322   18.3190 C   0  0  0  0  0  0  0  0  0  0  0  0
   10.3704   -4.9638   18.6510 C   0  0  0  0  0  0  0  0  0  0  0  0
    5.5935   -8.6419   17.4234 C   0  0  0  0  0  0  0  0  0  0  0  0
   13.0726   -4.6648   23.3394 O   0  0  0  0  0  0  0  0  0  0  0  0
    8.5955   -6.0705   17.3996 C   0  0  0  0  0  0  0  0  0  0  0  0
    4.6223   -8.3832   16.5030 C   0  0  0  0  0  0  0  0  0  0  0  0
   12.4690   -5.2624   19.9024 C   0  0  0  0  0  0  0  0  0  0  0  0
    3.2548   -9.9919   17.4189 C   0  0  0  0  0  0  0  0  0  0  0  0
   12.4767   -4.7393   22.1790 C   0  0  0  0  0  0  0  0  0  0  0  0
    7.8593   -5.3772   15.3569 N   0  0  0  0  0  0  0  0  0  0  0  0
    7.4412   -6.9038   16.9283 C   0  0  0  0  0  0  0  0  0  0  0  0
  1 21  4  0
  1 23  4  0
  2  5  1  0
  2 13  4  0
  2 16  4  0
  3  6  4  0
  3  7  4  0
  4 13  4  0
  4 19  4  0
  4 24  4  0
  6 23  4  0
  7 16  1  0
  7 21  4  0
  8 18  1  0
  9 20  4  0
  9 22  4  0
 10 17  1  0
 10 25  1  0
 11 16  4  0
 11 19  4  0
 12 15  4  0
 12 22  4  0
 14 24  4  0
 14 25  4  0
 15 17  4  0
 17 20  4  0
 18 23  1  0
 19 25  4  0
M  END
$$$$

 Created by Python create_sdf_string function

 25 28  0  0  0  0  0  0  0  0999 V2000
   13.1533   -5.2399   21.0682 C   0  0  0  0  0  0  0  0  0  0  0  0
   10.4729   -4.0295   17.6135 C   0  0  0  0  0  0  0  0  0  0  0  0
   10.4789   -4.3641   20.9564 C   0  0  0  0  0  0  0  0  0  0  0  0
    8.7421   -5.1412   16.3650 C   0  0  0  0  0  0  0  0  0  0  0  0
   11.4353   -2.9204   17.8044 C   0  0  0  0  0  0  0  0  0  0  0  0
   11.1529   -4.3028   22.1277 C   0  0  0  0  0  0  0  0  0  0  0  0
   11.1290   -4.8502   19.8052 C   0  0  0  0  0  0  0  0  0  0  0  0
   12.4329   -4.2159   24.4224 C   0  0  0  0  0  0  0  0  0  0  0  0
    3.4740   -9.0387   16.5022 C   0  0  0  0  0  0  0  0  0  0  0  0
    6.8384   -7.9290   17.5282 N   0  0  0  0  0  0  0  0  0  0  0  0
    9.4126   -5.9853   18.4899 C   0  0  0  0  0  0  0  0  0  0  0  0
    4.2064  -10.3242   18.3302 C   0  0  0  0  0  0  0  0  0  0  0  0
    9.6599   -4.1551   16.4796 N   0  0  0  0  0  0  0  0  0  0  0  0
    7.0644   -6.4612   15.7375 N   0  0  0  0  0  0  0  0  0  0  0  0
    5.3549   -9.6322   18.3190 C   0  0  0  0  0  0  0  0  0  0  0  0
   10.3704   -4.9638   18.6510 C   0  0  0  0  0  0  0  0  0  0  0  0
    5.5935   -8.6419   17.4234 C   0  0  0  0  0  0  0  0  0  0  0  0
   13.0726   -4.6648   23.3394 O   0  0  0  0  0  0  0  0  0  0  0  0
    8.5955   -6.0705   17.3996 C   0  0  0  0  0  0  0  0  0  0  0  0
    4.6223   -8.3832   16.5030 C   0  0  0  0  0  0  0  0  0  0  0  0
   12.4690   -5.2624   19.9024 C   0  0  0  0  0  0  0  0  0  0  0  0
    3.2548   -9.9919   17.4189 C   0  0  0  0  0  0  0  0  0  0  0  0
   12.4767   -4.7393   22.1790 C   0  0  0  0  0  0  0  0  0  0  0  0
    7.8593   -5.3772   15.3569 N   0  0  0  0  0  0  0  0  0  0  0  0
    7.4412   -6.9038   16.9283 C   0  0  0  0  0  0  0  0  0  0  0  0
  1 21  4  0
  1 23  4  0
  2  5  1  0
  2 13  4  0
  2 16  4  0
  3  6  4  0
  3  7  4  0
  4 13  4  0
  4 19  4  0
  4 24  4  0
  6 23  4  0
  7 16  1  0
  7 21  4  0
  8 18  1  0
  9 20  4  0
  9 22  4  0
 10 17  1  0
 10 25  1  0
 11 16  4  0
 11 19  4  0
 12 15  4  0
 12 22  4  0
 14 24  4  0
 14 25  4  0
 15 17  4  0
 17 20  4  0
 18 23  1  0
 19 25  4  0
M  END
$$$$

 Created by Python create_sdf_string function

 25 28  0  0  0  0  0  0  0  0999 V2000
   13.1533   -5.2399   21.0682 C   0  0  0  0  0  0  0  0  0  0  0  0
   10.4729   -4.0295   17.6135 C   0  0  0  0  0  0  0  0  0  0  0  0
   10.4789   -4.3641   20.9564 C   0  0  0  0  0  0  0  0  0  0  0  0
    8.7421   -5.1412   16.3650 C   0  0  0  0  0  0  0  0  0  0  0  0
   11.4353   -2.9204   17.8044 C   0  0  0  0  0  0  0  0  0  0  0  0
   11.1529   -4.3028   22.1277 C   0  0  0  0  0  0  0  0  0  0  0  0
   11.1290   -4.8502   19.8052 C   0  0  0  0  0  0  0  0  0  0  0  0
   12.4329   -4.2159   24.4224 C   0  0  0  0  0  0  0  0  0  0  0  0
    3.4740   -9.0387   16.5022 C   0  0  0  0  0  0  0  0  0  0  0  0
    6.8384   -7.9290   17.5282 N   0  0  0  0  0  0  0  0  0  0  0  0
    9.4126   -5.9853   18.4899 C   0  0  0  0  0  0  0  0  0  0  0  0
    4.2064  -10.3242   18.3302 C   0  0  0  0  0  0  0  0  0  0  0  0
    9.6599   -4.1551   16.4796 N   0  0  0  0  0  0  0  0  0  0  0  0
    7.0644   -6.4612   15.7375 N   0  0  0  0  0  0  0  0  0  0  0  0
    5.3549   -9.6322   18.3190 C   0  0  0  0  0  0  0  0  0  0  0  0
   10.3704   -4.9638   18.6510 C   0  0  0  0  0  0  0  0  0  0  0  0
    5.5935   -8.6419   17.4234 C   0  0  0  0  0  0  0  0  0  0  0  0
   13.0726   -4.6648   23.3394 O   0  0  0  0  0  0  0  0  0  0  0  0
    8.5955   -6.0705   17.3996 C   0  0  0  0  0  0  0  0  0  0  0  0
    4.6223   -8.3832   16.5030 C   0  0  0  0  0  0  0  0  0  0  0  0
   12.4690   -5.2624   19.9024 C   0  0  0  0  0  0  0  0  0  0  0  0
    3.2548   -9.9919   17.4189 C   0  0  0  0  0  0  0  0  0  0  0  0
   12.4767   -4.7393   22.1790 C   0  0  0  0  0  0  0  0  0  0  0  0
    7.8593   -5.3772   15.3569 N   0  0  0  0  0  0  0  0  0  0  0  0
    7.4412   -6.9038   16.9283 C   0  0  0  0  0  0  0  0  0  0  0  0
  1 21  4  0
  1 23  4  0
  2  5  1  0
  2 13  4  0
  2 16  4  0
  3  6  4  0
  3  7  4  0
  4 13  4  0
  4 19  4  0
  4 24  4  0
  6 23  4  0
  7 16  1  0
  7 21  4  0
  8 18  1  0
  9 20  4  0
  9 22  4  0
 10 17  1  0
 10 25  1  0
 11 16  4  0
 11 19  4  0
 12 15  4  0
 12 22  4  0
 14 24  4  0
 14 25  4  0
 15 17  4  0
 17 20  4  0
 18 23  1  0
 19 25  4  0
M  END
$$$$

 Created by Python create_sdf_string function

 25 28  0  0  0  0  0  0  0  0999 V2000
   13.1533   -5.2399   21.0682 C   0  0  0  0  0  0  0  0  0  0  0  0
   10.4729   -4.0295   17.6135 C   0  0  0  0  0  0  0  0  0  0  0  0
   10.4789   -4.3641   20.9564 C   0  0  0  0  0  0  0  0  0  0  0  0
    8.7421   -5.1412   16.3650 C   0  0  0  0  0  0  0  0  0  0  0  0
   11.4353   -2.9204   17.8044 C   0  0  0  0  0  0  0  0  0  0  0  0
   11.1529   -4.3028   22.1277 C   0  0  0  0  0  0  0  0  0  0  0  0
   11.1290   -4.8502   19.8052 C   0  0  0  0  0  0  0  0  0  0  0  0
   12.4329   -4.2159   24.4224 C   0  0  0  0  0  0  0  0  0  0  0  0
    3.4740   -9.0387   16.5022 C   0  0  0  0  0  0  0  0  0  0  0  0
    6.8384   -7.9290   17.5282 N   0  0  0  0  0  0  0  0  0  0  0  0
    9.4126   -5.9853   18.4899 C   0  0  0  0  0  0  0  0  0  0  0  0
    4.2064  -10.3242   18.3302 C   0  0  0  0  0  0  0  0  0  0  0  0
    9.6599   -4.1551   16.4796 N   0  0  0  0  0  0  0  0  0  0  0  0
    7.0644   -6.4612   15.7375 N   0  0  0  0  0  0  0  0  0  0  0  0
    5.3549   -9.6322   18.3190 C   0  0  0  0  0  0  0  0  0  0  0  0
   10.3704   -4.9638   18.6510 C   0  0  0  0  0  0  0  0  0  0  0  0
    5.5935   -8.6419   17.4234 C   0  0  0  0  0  0  0  0  0  0  0  0
   13.0726   -4.6648   23.3394 O   0  0  0  0  0  0  0  0  0  0  0  0
    8.5955   -6.0705   17.3996 C   0  0  0  0  0  0  0  0  0  0  0  0
    4.6223   -8.3832   16.5030 C   0  0  0  0  0  0  0  0  0  0  0  0
   12.4690   -5.2624   19.9024 C   0  0  0  0  0  0  0  0  0  0  0  0
    3.2548   -9.9919   17.4189 C   0  0  0  0  0  0  0  0  0  0  0  0
   12.4767   -4.7393   22.1790 C   0  0  0  0  0  0  0  0  0  0  0  0
    7.8593   -5.3772   15.3569 N   0  0  0  0  0  0  0  0  0  0  0  0
    7.4412   -6.9038   16.9283 C   0  0  0  0  0  0  0  0  0  0  0  0
  1 21  4  0
  1 23  4  0
  2  5  1  0
  2 13  4  0
  2 16  4  0
  3  6  4  0
  3  7  4  0
  4 13  4  0
  4 19  4  0
  4 24  4  0
  6 23  4  0
  7 16  1  0
  7 21  4  0
  8 18  1  0
  9 20  4  0
  9 22  4  0
 10 17  1  0
 10 25  1  0
 11 16  4  0
 11 19  4  0
 12 15  4  0
 12 22  4  0
 14 24  4  0
 14 25  4  0
 15 17  4  0
 17 20  4  0
 18 23  1  0
 19 25  4  0
M  END
$$$$

 Created by Python create_sdf_string function

 25 28  0  0  0  0  0  0  0  0999 V2000
   13.1533   -5.2399   21.0682 C   0  0  0  0  0  0  0  0  0  0  0  0
   10.4729   -4.0295   17.6135 C   0  0  0  0  0  0  0  0  0  0  0  0
   10.4789   -4.3641   20.9564 C   0  0  0  0  0  0  0  0  0  0  0  0
    8.7421   -5.1412   16.3650 C   0  0  0  0  0  0  0  0  0  0  0  0
   11.4353   -2.9204   17.8044 C   0  0  0  0  0  0  0  0  0  0  0  0
   11.1529   -4.3028   22.1277 C   0  0  0  0  0  0  0  0  0  0  0  0
   11.1290   -4.8502   19.8052 C   0  0  0  0  0  0  0  0  0  0  0  0
   12.4329   -4.2159   24.4224 C   0  0  0  0  0  0  0  0  0  0  0  0
    3.4740   -9.0387   16.5022 C   0  0  0  0  0  0  0  0  0  0  0  0
    6.8384   -7.9290   17.5282 N   0  0  0  0  0  0  0  0  0  0  0  0
    9.4126   -5.9853   18.4899 C   0  0  0  0  0  0  0  0  0  0  0  0
    4.2064  -10.3242   18.3302 C   0  0  0  0  0  0  0  0  0  0  0  0
    9.6599   -4.1551   16.4796 N   0  0  0  0  0  0  0  0  0  0  0  0
    7.0644   -6.4612   15.7375 N   0  0  0  0  0  0  0  0  0  0  0  0
    5.3549   -9.6322   18.3190 C   0  0  0  0  0  0  0  0  0  0  0  0
   10.3704   -4.9638   18.6510 C   0  0  0  0  0  0  0  0  0  0  0  0
    5.5935   -8.6419   17.4234 C   0  0  0  0  0  0  0  0  0  0  0  0
   13.0726   -4.6648   23.3394 O   0  0  0  0  0  0  0  0  0  0  0  0
    8.5955   -6.0705   17.3996 C   0  0  0  0  0  0  0  0  0  0  0  0
    4.6223   -8.3832   16.5030 C   0  0  0  0  0  0  0  0  0  0  0  0
   12.4690   -5.2624   19.9024 C   0  0  0  0  0  0  0  0  0  0  0  0
    3.2548   -9.9919   17.4189 C   0  0  0  0  0  0  0  0  0  0  0  0
   12.4767   -4.7393   22.1790 C   0  0  0  0  0  0  0  0  0  0  0  0
    7.8593   -5.3772   15.3569 N   0  0  0  0  0  0  0  0  0  0  0  0
    7.4412   -6.9038   16.9283 C   0  0  0  0  0  0  0  0  0  0  0  0
  1 21  4  0
  1 23  4  0
  2  5  1  0
  2 13  4  0
  2 16  4  0
  3  6  4  0
  3  7  4  0
  4 13  4  0
  4 19  4  0
  4 24  4  0
  6 23  4  0
  7 16  1  0
  7 21  4  0
  8 18  1  0
  9 20  4  0
  9 22  4  0
 10 17  1  0
 10 25  1  0
 11 16  4  0
 11 19  4  0
 12 15  4  0
 12 22  4  0
 14 24  4  0
 14 25  4  0
 15 17  4  0
 17 20  4  0
 18 23  1  0
 19 25  4  0
M  END
$$$$

 Created by Python create_sdf_string function

 25 28  0  0  0  0  0  0  0  0999 V2000
   13.1533   -5.2399   21.0682 C   0  0  0  0  0  0  0  0  0  0  0  0
   10.4729   -4.0295   17.6135 C   0  0  0  0  0  0  0  0  0  0  0  0
   10.4789   -4.3641   20.9564 C   0  0  0  0  0  0  0  0  0  0  0  0
    8.7421   -5.1412   16.3650 C   0  0  0  0  0  0  0  0  0  0  0  0
   11.4353   -2.9204   17.8044 C   0  0  0  0  0  0  0  0  0  0  0  0
   11.1529   -4.3028   22.1277 C   0  0  0  0  0  0  0  0  0  0  0  0
   11.1290   -4.8502   19.8052 C   0  0  0  0  0  0  0  0  0  0  0  0
   12.4329   -4.2159   24.4224 C   0  0  0  0  0  0  0  0  0  0  0  0
    3.4740   -9.0387   16.5022 C   0  0  0  0  0  0  0  0  0  0  0  0
    6.8384   -7.9290   17.5282 N   0  0  0  0  0  0  0  0  0  0  0  0
    9.4126   -5.9853   18.4899 C   0  0  0  0  0  0  0  0  0  0  0  0
    4.2064  -10.3242   18.3302 C   0  0  0  0  0  0  0  0  0  0  0  0
    9.6599   -4.1551   16.4796 N   0  0  0  0  0  0  0  0  0  0  0  0
    7.0644   -6.4612   15.7375 N   0  0  0  0  0  0  0  0  0  0  0  0
    5.3549   -9.6322   18.3190 C   0  0  0  0  0  0  0  0  0  0  0  0
   10.3704   -4.9638   18.6510 C   0  0  0  0  0  0  0  0  0  0  0  0
    5.5935   -8.6419   17.4234 C   0  0  0  0  0  0  0  0  0  0  0  0
   13.0726   -4.6648   23.3394 O   0  0  0  0  0  0  0  0  0  0  0  0
    8.5955   -6.0705   17.3996 C   0  0  0  0  0  0  0  0  0  0  0  0
    4.6223   -8.3832   16.5030 C   0  0  0  0  0  0  0  0  0  0  0  0
   12.4690   -5.2624   19.9024 C   0  0  0  0  0  0  0  0  0  0  0  0
    3.2548   -9.9919   17.4189 C   0  0  0  0  0  0  0  0  0  0  0  0
   12.4767   -4.7393   22.1790 C   0  0  0  0  0  0  0  0  0  0  0  0
    7.8593   -5.3772   15.3569 N   0  0  0  0  0  0  0  0  0  0  0  0
    7.4412   -6.9038   16.9283 C   0  0  0  0  0  0  0  0  0  0  0  0
  1 21  4  0
  1 23  4  0
  2  5  1  0
  2 13  4  0
  2 16  4  0
  3  6  4  0
  3  7  4  0
  4 13  4  0
  4 19  4  0
  4 24  4  0
  6 23  4  0
  7 16  1  0
  7 21  4  0
  8 18  1  0
  9 20  4  0
  9 22  4  0
 10 17  1  0
 10 25  1  0
 11 16  4  0
 11 19  4  0
 12 15  4  0
 12 22  4  0
 14 24  4  0
 14 25  4  0
 15 17  4  0
 17 20  4  0
 18 23  1  0
 19 25  4  0
M  END
$$$$

 Created by Python create_sdf_string function

 25 28  0  0  0  0  0  0  0  0999 V2000
   13.1533   -5.2399   21.0682 C   0  0  0  0  0  0  0  0  0  0  0  0
   10.4729   -4.0295   17.6135 C   0  0  0  0  0  0  0  0  0  0  0  0
   10.4789   -4.3641   20.9564 C   0  0  0  0  0  0  0  0  0  0  0  0
    8.7421   -5.1412   16.3650 C   0  0  0  0  0  0  0  0  0  0  0  0
   11.4353   -2.9204   17.8044 C   0  0  0  0  0  0  0  0  0  0  0  0
   11.1529   -4.3028   22.1277 C   0  0  0  0  0  0  0  0  0  0  0  0
   11.1290   -4.8502   19.8052 C   0  0  0  0  0  0  0  0  0  0  0  0
   12.4329   -4.2159   24.4224 C   0  0  0  0  0  0  0  0  0  0  0  0
    3.4740   -9.0387   16.5022 C   0  0  0  0  0  0  0  0  0  0  0  0
    6.8384   -7.9290   17.5282 N   0  0  0  0  0  0  0  0  0  0  0  0
    9.4126   -5.9853   18.4899 C   0  0  0  0  0  0  0  0  0  0  0  0
    4.2064  -10.3242   18.3302 C   0  0  0  0  0  0  0  0  0  0  0  0
    9.6599   -4.1551   16.4796 N   0  0  0  0  0  0  0  0  0  0  0  0
    7.0644   -6.4612   15.7375 N   0  0  0  0  0  0  0  0  0  0  0  0
    5.3549   -9.6322   18.3190 C   0  0  0  0  0  0  0  0  0  0  0  0
   10.3704   -4.9638   18.6510 C   0  0  0  0  0  0  0  0  0  0  0  0
    5.5935   -8.6419   17.4234 C   0  0  0  0  0  0  0  0  0  0  0  0
   13.0726   -4.6648   23.3394 O   0  0  0  0  0  0  0  0  0  0  0  0
    8.5955   -6.0705   17.3996 C   0  0  0  0  0  0  0  0  0  0  0  0
    4.6223   -8.3832   16.5030 C   0  0  0  0  0  0  0  0  0  0  0  0
   12.4690   -5.2624   19.9024 C   0  0  0  0  0  0  0  0  0  0  0  0
    3.2548   -9.9919   17.4189 C   0  0  0  0  0  0  0  0  0  0  0  0
   12.4767   -4.7393   22.1790 C   0  0  0  0  0  0  0  0  0  0  0  0
    7.8593   -5.3772   15.3569 N   0  0  0  0  0  0  0  0  0  0  0  0
    7.4412   -6.9038   16.9283 C   0  0  0  0  0  0  0  0  0  0  0  0
  1 21  4  0
  1 23  4  0
  2  5  1  0
  2 13  4  0
  2 16  4  0
  3  6  4  0
  3  7  4  0
  4 13  4  0
  4 19  4  0
  4 24  4  0
  6 23  4  0
  7 16  1  0
  7 21  4  0
  8 18  1  0
  9 20  4  0
  9 22  4  0
 10 17  1  0
 10 25  1  0
 11 16  4  0
 11 19  4  0
 12 15  4  0
 12 22  4  0
 14 24  4  0
 14 25  4  0
 15 17  4  0
 17 20  4  0
 18 23  1  0
 19 25  4  0
M  END
$$$$

 Created by Python create_sdf_string function

 25 28  0  0  0  0  0  0  0  0999 V2000
   13.1533   -5.2399   21.0682 C   0  0  0  0  0  0  0  0  0  0  0  0
   10.4729   -4.0295   17.6135 C   0  0  0  0  0  0  0  0  0  0  0  0
   10.4789   -4.3641   20.9564 C   0  0  0  0  0  0  0  0  0  0  0  0
    8.7421   -5.1412   16.3650 C   0  0  0  0  0  0  0  0  0  0  0  0
   11.4353   -2.9204   17.8044 C   0  0  0  0  0  0  0  0  0  0  0  0
   11.1529   -4.3028   22.1277 C   0  0  0  0  0  0  0  0  0  0  0  0
   11.1290   -4.8502   19.8052 C   0  0  0  0  0  0  0  0  0  0  0  0
   12.4329   -4.2159   24.4224 C   0  0  0  0  0  0  0  0  0  0  0  0
    3.4740   -9.0387   16.5022 C   0  0  0  0  0  0  0  0  0  0  0  0
    6.8384   -7.9290   17.5282 N   0  0  0  0  0  0  0  0  0  0  0  0
    9.4126   -5.9853   18.4899 C   0  0  0  0  0  0  0  0  0  0  0  0
    4.2064  -10.3242   18.3302 C   0  0  0  0  0  0  0  0  0  0  0  0
    9.6599   -4.1551   16.4796 N   0  0  0  0  0  0  0  0  0  0  0  0
    7.0644   -6.4612   15.7375 N   0  0  0  0  0  0  0  0  0  0  0  0
    5.3549   -9.6322   18.3190 C   0  0  0  0  0  0  0  0  0  0  0  0
   10.3704   -4.9638   18.6510 C   0  0  0  0  0  0  0  0  0  0  0  0
    5.5935   -8.6419   17.4234 C   0  0  0  0  0  0  0  0  0  0  0  0
   13.0726   -4.6648   23.3394 O   0  0  0  0  0  0  0  0  0  0  0  0
    8.5955   -6.0705   17.3996 C   0  0  0  0  0  0  0  0  0  0  0  0
    4.6223   -8.3832   16.5030 C   0  0  0  0  0  0  0  0  0  0  0  0
   12.4690   -5.2624   19.9024 C   0  0  0  0  0  0  0  0  0  0  0  0
    3.2548   -9.9919   17.4189 C   0  0  0  0  0  0  0  0  0  0  0  0
   12.4767   -4.7393   22.1790 C   0  0  0  0  0  0  0  0  0  0  0  0
    7.8593   -5.3772   15.3569 N   0  0  0  0  0  0  0  0  0  0  0  0
    7.4412   -6.9038   16.9283 C   0  0  0  0  0  0  0  0  0  0  0  0
  1 21  4  0
  1 23  4  0
  2  5  1  0
  2 13  4  0
  2 16  4  0
  3  6  4  0
  3  7  4  0
  4 13  4  0
  4 19  4  0
  4 24  4  0
  6 23  4  0
  7 16  1  0
  7 21  4  0
  8 18  1  0
  9 20  4  0
  9 22  4  0
 10 17  1  0
 10 25  1  0
 11 16  4  0
 11 19  4  0
 12 15  4  0
 12 22  4  0
 14 24  4  0
 14 25  4  0
 15 17  4  0
 17 20  4  0
 18 23  1  0
 19 25  4  0
M  END
$$$$

 Created by Python create_sdf_string function

 25 28  0  0  0  0  0  0  0  0999 V2000
   13.1533   -5.2399   21.0682 C   0  0  0  0  0  0  0  0  0  0  0  0
   10.4729   -4.0295   17.6135 C   0  0  0  0  0  0  0  0  0  0  0  0
   10.4789   -4.3641   20.9564 C   0  0  0  0  0  0  0  0  0  0  0  0
    8.7421   -5.1412   16.3650 C   0  0  0  0  0  0  0  0  0  0  0  0
   11.4353   -2.9204   17.8044 C   0  0  0  0  0  0  0  0  0  0  0  0
   11.1529   -4.3028   22.1277 C   0  0  0  0  0  0  0  0  0  0  0  0
   11.1290   -4.8502   19.8052 C   0  0  0  0  0  0  0  0  0  0  0  0
   12.4329   -4.2159   24.4224 C   0  0  0  0  0  0  0  0  0  0  0  0
    3.4740   -9.0387   16.5022 C   0  0  0  0  0  0  0  0  0  0  0  0
    6.8384   -7.9290   17.5282 N   0  0  0  0  0  0  0  0  0  0  0  0
    9.4126   -5.9853   18.4899 C   0  0  0  0  0  0  0  0  0  0  0  0
    4.2064  -10.3242   18.3302 C   0  0  0  0  0  0  0  0  0  0  0  0
    9.6599   -4.1551   16.4796 N   0  0  0  0  0  0  0  0  0  0  0  0
    7.0644   -6.4612   15.7375 N   0  0  0  0  0  0  0  0  0  0  0  0
    5.3549   -9.6322   18.3190 C   0  0  0  0  0  0  0  0  0  0  0  0
   10.3704   -4.9638   18.6510 C   0  0  0  0  0  0  0  0  0  0  0  0
    5.5935   -8.6419   17.4234 C   0  0  0  0  0  0  0  0  0  0  0  0
   13.0726   -4.6648   23.3394 O   0  0  0  0  0  0  0  0  0  0  0  0
    8.5955   -6.0705   17.3996 C   0  0  0  0  0  0  0  0  0  0  0  0
    4.6223   -8.3832   16.5030 C   0  0  0  0  0  0  0  0  0  0  0  0
   12.4690   -5.2624   19.9024 C   0  0  0  0  0  0  0  0  0  0  0  0
    3.2548   -9.9919   17.4189 C   0  0  0  0  0  0  0  0  0  0  0  0
   12.4767   -4.7393   22.1790 C   0  0  0  0  0  0  0  0  0  0  0  0
    7.8593   -5.3772   15.3569 N   0  0  0  0  0  0  0  0  0  0  0  0
    7.4412   -6.9038   16.9283 C   0  0  0  0  0  0  0  0  0  0  0  0
  1 21  4  0
  1 23  4  0
  2  5  1  0
  2 13  4  0
  2 16  4  0
  3  6  4  0
  3  7  4  0
  4 13  4  0
  4 19  4  0
  4 24  4  0
  6 23  4  0
  7 16  1  0
  7 21  4  0
  8 18  1  0
  9 20  4  0
  9 22  4  0
 10 17  1  0
 10 25  1  0
 11 16  4  0
 11 19  4  0
 12 15  4  0
 12 22  4  0
 14 24  4  0
 14 25  4  0
 15 17  4  0
 17 20  4  0
 18 23  1  0
 19 25  4  0
M  END
$$$$

 Created by Python create_sdf_string function

 25 28  0  0  0  0  0  0  0  0999 V2000
   13.1533   -5.2399   21.0682 C   0  0  0  0  0  0  0  0  0  0  0  0
   10.4729   -4.0295   17.6135 C   0  0  0  0  0  0  0  0  0  0  0  0
   10.4789   -4.3641   20.9564 C   0  0  0  0  0  0  0  0  0  0  0  0
    8.7421   -5.1412   16.3650 C   0  0  0  0  0  0  0  0  0  0  0  0
   11.4353   -2.9204   17.8044 C   0  0  0  0  0  0  0  0  0  0  0  0
   11.1529   -4.3028   22.1277 C   0  0  0  0  0  0  0  0  0  0  0  0
   11.1290   -4.8502   19.8052 C   0  0  0  0  0  0  0  0  0  0  0  0
   12.4329   -4.2159   24.4224 C   0  0  0  0  0  0  0  0  0  0  0  0
    3.4740   -9.0387   16.5022 C   0  0  0  0  0  0  0  0  0  0  0  0
    6.8384   -7.9290   17.5282 N   0  0  0  0  0  0  0  0  0  0  0  0
    9.4126   -5.9853   18.4899 C   0  0  0  0  0  0  0  0  0  0  0  0
    4.2064  -10.3242   18.3302 C   0  0  0  0  0  0  0  0  0  0  0  0
    9.6599   -4.1551   16.4796 N   0  0  0  0  0  0  0  0  0  0  0  0
    7.0644   -6.4612   15.7375 N   0  0  0  0  0  0  0  0  0  0  0  0
    5.3549   -9.6322   18.3190 C   0  0  0  0  0  0  0  0  0  0  0  0
   10.3704   -4.9638   18.6510 C   0  0  0  0  0  0  0  0  0  0  0  0
    5.5935   -8.6419   17.4234 C   0  0  0  0  0  0  0  0  0  0  0  0
   13.0726   -4.6648   23.3394 O   0  0  0  0  0  0  0  0  0  0  0  0
    8.5955   -6.0705   17.3996 C   0  0  0  0  0  0  0  0  0  0  0  0
    4.6223   -8.3832   16.5030 C   0  0  0  0  0  0  0  0  0  0  0  0
   12.4690   -5.2624   19.9024 C   0  0  0  0  0  0  0  0  0  0  0  0
    3.2548   -9.9919   17.4189 C   0  0  0  0  0  0  0  0  0  0  0  0
   12.4767   -4.7393   22.1790 C   0  0  0  0  0  0  0  0  0  0  0  0
    7.8593   -5.3772   15.3569 N   0  0  0  0  0  0  0  0  0  0  0  0
    7.4412   -6.9038   16.9283 C   0  0  0  0  0  0  0  0  0  0  0  0
  1 21  4  0
  1 23  4  0
  2  5  1  0
  2 13  4  0
  2 16  4  0
  3  6  4  0
  3  7  4  0
  4 13  4  0
  4 19  4  0
  4 24  4  0
  6 23  4  0
  7 16  1  0
  7 21  4  0
  8 18  1  0
  9 20  4  0
  9 22  4  0
 10 17  1  0
 10 25  1  0
 11 16  4  0
 11 19  4  0
 12 15  4  0
 12 22  4  0
 14 24  4  0
 14 25  4  0
 15 17  4  0
 17 20  4  0
 18 23  1  0
 19 25  4  0
M  END
$$$$

 Created by Python create_sdf_string function

 25 28  0  0  0  0  0  0  0  0999 V2000
   13.1533   -5.2399   21.0682 C   0  0  0  0  0  0  0  0  0  0  0  0
   10.4729   -4.0295   17.6135 C   0  0  0  0  0  0  0  0  0  0  0  0
   10.4789   -4.3641   20.9564 C   0  0  0  0  0  0  0  0  0  0  0  0
    8.7421   -5.1412   16.3650 C   0  0  0  0  0  0  0  0  0  0  0  0
   11.4353   -2.9204   17.8044 C   0  0  0  0  0  0  0  0  0  0  0  0
   11.1529   -4.3028   22.1277 C   0  0  0  0  0  0  0  0  0  0  0  0
   11.1290   -4.8502   19.8052 C   0  0  0  0  0  0  0  0  0  0  0  0
   12.4329   -4.2159   24.4224 C   0  0  0  0  0  0  0  0  0  0  0  0
    3.4740   -9.0387   16.5022 C   0  0  0  0  0  0  0  0  0  0  0  0
    6.8384   -7.9290   17.5282 N   0  0  0  0  0  0  0  0  0  0  0  0
    9.4126   -5.9853   18.4899 C   0  0  0  0  0  0  0  0  0  0  0  0
    4.2064  -10.3242   18.3302 C   0  0  0  0  0  0  0  0  0  0  0  0
    9.6599   -4.1551   16.4796 N   0  0  0  0  0  0  0  0  0  0  0  0
    7.0644   -6.4612   15.7375 N   0  0  0  0  0  0  0  0  0  0  0  0
    5.3549   -9.6322   18.3190 C   0  0  0  0  0  0  0  0  0  0  0  0
   10.3704   -4.9638   18.6510 C   0  0  0  0  0  0  0  0  0  0  0  0
    5.5935   -8.6419   17.4234 C   0  0  0  0  0  0  0  0  0  0  0  0
   13.0726   -4.6648   23.3394 O   0  0  0  0  0  0  0  0  0  0  0  0
    8.5955   -6.0705   17.3996 C   0  0  0  0  0  0  0  0  0  0  0  0
    4.6223   -8.3832   16.5030 C   0  0  0  0  0  0  0  0  0  0  0  0
   12.4690   -5.2624   19.9024 C   0  0  0  0  0  0  0  0  0  0  0  0
    3.2548   -9.9919   17.4189 C   0  0  0  0  0  0  0  0  0  0  0  0
   12.4767   -4.7393   22.1790 C   0  0  0  0  0  0  0  0  0  0  0  0
    7.8593   -5.3772   15.3569 N   0  0  0  0  0  0  0  0  0  0  0  0
    7.4412   -6.9038   16.9283 C   0  0  0  0  0  0  0  0  0  0  0  0
  1 21  4  0
  1 23  4  0
  2  5  1  0
  2 13  4  0
  2 16  4  0
  3  6  4  0
  3  7  4  0
  4 13  4  0
  4 19  4  0
  4 24  4  0
  6 23  4  0
  7 16  1  0
  7 21  4  0
  8 18  1  0
  9 20  4  0
  9 22  4  0
 10 17  1  0
 10 25  1  0
 11 16  4  0
 11 19  4  0
 12 15  4  0
 12 22  4  0
 14 24  4  0
 14 25  4  0
 15 17  4  0
 17 20  4  0
 18 23  1  0
 19 25  4  0
M  END
$$$$

 Created by Python create_sdf_string function

 25 28  0  0  0  0  0  0  0  0999 V2000
   13.1533   -5.2399   21.0682 C   0  0  0  0  0  0  0  0  0  0  0  0
   10.4729   -4.0295   17.6135 C   0  0  0  0  0  0  0  0  0  0  0  0
   10.4789   -4.3641   20.9564 C   0  0  0  0  0  0  0  0  0  0  0  0
    8.7421   -5.1412   16.3650 C   0  0  0  0  0  0  0  0  0  0  0  0
   11.4353   -2.9204   17.8044 C   0  0  0  0  0  0  0  0  0  0  0  0
   11.1529   -4.3028   22.1277 C   0  0  0  0  0  0  0  0  0  0  0  0
   11.1290   -4.8502   19.8052 C   0  0  0  0  0  0  0  0  0  0  0  0
   12.4329   -4.2159   24.4224 C   0  0  0  0  0  0  0  0  0  0  0  0
    3.4740   -9.0387   16.5022 C   0  0  0  0  0  0  0  0  0  0  0  0
    6.8384   -7.9290   17.5282 N   0  0  0  0  0  0  0  0  0  0  0  0
    9.4126   -5.9853   18.4899 C   0  0  0  0  0  0  0  0  0  0  0  0
    4.2064  -10.3242   18.3302 C   0  0  0  0  0  0  0  0  0  0  0  0
    9.6599   -4.1551   16.4796 N   0  0  0  0  0  0  0  0  0  0  0  0
    7.0644   -6.4612   15.7375 N   0  0  0  0  0  0  0  0  0  0  0  0
    5.3549   -9.6322   18.3190 C   0  0  0  0  0  0  0  0  0  0  0  0
   10.3704   -4.9638   18.6510 C   0  0  0  0  0  0  0  0  0  0  0  0
    5.5935   -8.6419   17.4234 C   0  0  0  0  0  0  0  0  0  0  0  0
   13.0726   -4.6648   23.3394 O   0  0  0  0  0  0  0  0  0  0  0  0
    8.5955   -6.0705   17.3996 C   0  0  0  0  0  0  0  0  0  0  0  0
    4.6223   -8.3832   16.5030 C   0  0  0  0  0  0  0  0  0  0  0  0
   12.4690   -5.2624   19.9024 C   0  0  0  0  0  0  0  0  0  0  0  0
    3.2548   -9.9919   17.4189 C   0  0  0  0  0  0  0  0  0  0  0  0
   12.4767   -4.7393   22.1790 C   0  0  0  0  0  0  0  0  0  0  0  0
    7.8593   -5.3772   15.3569 N   0  0  0  0  0  0  0  0  0  0  0  0
    7.4412   -6.9038   16.9283 C   0  0  0  0  0  0  0  0  0  0  0  0
  1 21  4  0
  1 23  4  0
  2  5  1  0
  2 13  4  0
  2 16  4  0
  3  6  4  0
  3  7  4  0
  4 13  4  0
  4 19  4  0
  4 24  4  0
  6 23  4  0
  7 16  1  0
  7 21  4  0
  8 18  1  0
  9 20  4  0
  9 22  4  0
 10 17  1  0
 10 25  1  0
 11 16  4  0
 11 19  4  0
 12 15  4  0
 12 22  4  0
 14 24  4  0
 14 25  4  0
 15 17  4  0
 17 20  4  0
 18 23  1  0
 19 25  4  0
M  END
$$$$

 Created by Python create_sdf_string function

 25 28  0  0  0  0  0  0  0  0999 V2000
   13.1533   -5.2399   21.0682 C   0  0  0  0  0  0  0  0  0  0  0  0
   10.4729   -4.0295   17.6135 C   0  0  0  0  0  0  0  0  0  0  0  0
   10.4789   -4.3641   20.9564 C   0  0  0  0  0  0  0  0  0  0  0  0
    8.7421   -5.1412   16.3650 C   0  0  0  0  0  0  0  0  0  0  0  0
   11.4353   -2.9204   17.8044 C   0  0  0  0  0  0  0  0  0  0  0  0
   11.1529   -4.3028   22.1277 C   0  0  0  0  0  0  0  0  0  0  0  0
   11.1290   -4.8502   19.8052 C   0  0  0  0  0  0  0  0  0  0  0  0
   12.4329   -4.2159   24.4224 C   0  0  0  0  0  0  0  0  0  0  0  0
    3.4740   -9.0387   16.5022 C   0  0  0  0  0  0  0  0  0  0  0  0
    6.8384   -7.9290   17.5282 N   0  0  0  0  0  0  0  0  0  0  0  0
    9.4126   -5.9853   18.4899 C   0  0  0  0  0  0  0  0  0  0  0  0
    4.2064  -10.3242   18.3302 C   0  0  0  0  0  0  0  0  0  0  0  0
    9.6599   -4.1551   16.4796 N   0  0  0  0  0  0  0  0  0  0  0  0
    7.0644   -6.4612   15.7375 N   0  0  0  0  0  0  0  0  0  0  0  0
    5.3549   -9.6322   18.3190 C   0  0  0  0  0  0  0  0  0  0  0  0
   10.3704   -4.9638   18.6510 C   0  0  0  0  0  0  0  0  0  0  0  0
    5.5935   -8.6419   17.4234 C   0  0  0  0  0  0  0  0  0  0  0  0
   13.0726   -4.6648   23.3394 O   0  0  0  0  0  0  0  0  0  0  0  0
    8.5955   -6.0705   17.3996 C   0  0  0  0  0  0  0  0  0  0  0  0
    4.6223   -8.3832   16.5030 C   0  0  0  0  0  0  0  0  0  0  0  0
   12.4690   -5.2624   19.9024 C   0  0  0  0  0  0  0  0  0  0  0  0
    3.2548   -9.9919   17.4189 C   0  0  0  0  0  0  0  0  0  0  0  0
   12.4767   -4.7393   22.1790 C   0  0  0  0  0  0  0  0  0  0  0  0
    7.8593   -5.3772   15.3569 N   0  0  0  0  0  0  0  0  0  0  0  0
    7.4412   -6.9038   16.9283 C   0  0  0  0  0  0  0  0  0  0  0  0
  1 21  4  0
  1 23  4  0
  2  5  1  0
  2 13  4  0
  2 16  4  0
  3  6  4  0
  3  7  4  0
  4 13  4  0
  4 19  4  0
  4 24  4  0
  6 23  4  0
  7 16  1  0
  7 21  4  0
  8 18  1  0
  9 20  4  0
  9 22  4  0
 10 17  1  0
 10 25  1  0
 11 16  4  0
 11 19  4  0
 12 15  4  0
 12 22  4  0
 14 24  4  0
 14 25  4  0
 15 17  4  0
 17 20  4  0
 18 23  1  0
 19 25  4  0
M  END
$$$$

 Created by Python create_sdf_string function

 25 28  0  0  0  0  0  0  0  0999 V2000
   13.1533   -5.2399   21.0682 C   0  0  0  0  0  0  0  0  0  0  0  0
   10.4729   -4.0295   17.6135 C   0  0  0  0  0  0  0  0  0  0  0  0
   10.4789   -4.3641   20.9564 C   0  0  0  0  0  0  0  0  0  0  0  0
    8.7421   -5.1412   16.3650 C   0  0  0  0  0  0  0  0  0  0  0  0
   11.4353   -2.9204   17.8044 C   0  0  0  0  0  0  0  0  0  0  0  0
   11.1529   -4.3028   22.1277 C   0  0  0  0  0  0  0  0  0  0  0  0
   11.1290   -4.8502   19.8052 C   0  0  0  0  0  0  0  0  0  0  0  0
   12.4329   -4.2159   24.4224 C   0  0  0  0  0  0  0  0  0  0  0  0
    3.4740   -9.0387   16.5022 C   0  0  0  0  0  0  0  0  0  0  0  0
    6.8384   -7.9290   17.5282 N   0  0  0  0  0  0  0  0  0  0  0  0
    9.4126   -5.9853   18.4899 C   0  0  0  0  0  0  0  0  0  0  0  0
    4.2064  -10.3242   18.3302 C   0  0  0  0  0  0  0  0  0  0  0  0
    9.6599   -4.1551   16.4796 N   0  0  0  0  0  0  0  0  0  0  0  0
    7.0644   -6.4612   15.7375 N   0  0  0  0  0  0  0  0  0  0  0  0
    5.3549   -9.6322   18.3190 C   0  0  0  0  0  0  0  0  0  0  0  0
   10.3704   -4.9638   18.6510 C   0  0  0  0  0  0  0  0  0  0  0  0
    5.5935   -8.6419   17.4234 C   0  0  0  0  0  0  0  0  0  0  0  0
   13.0726   -4.6648   23.3394 O   0  0  0  0  0  0  0  0  0  0  0  0
    8.5955   -6.0705   17.3996 C   0  0  0  0  0  0  0  0  0  0  0  0
    4.6223   -8.3832   16.5030 C   0  0  0  0  0  0  0  0  0  0  0  0
   12.4690   -5.2624   19.9024 C   0  0  0  0  0  0  0  0  0  0  0  0
    3.2548   -9.9919   17.4189 C   0  0  0  0  0  0  0  0  0  0  0  0
   12.4767   -4.7393   22.1790 C   0  0  0  0  0  0  0  0  0  0  0  0
    7.8593   -5.3772   15.3569 N   0  0  0  0  0  0  0  0  0  0  0  0
    7.4412   -6.9038   16.9283 C   0  0  0  0  0  0  0  0  0  0  0  0
  1 21  4  0
  1 23  4  0
  2  5  1  0
  2 13  4  0
  2 16  4  0
  3  6  4  0
  3  7  4  0
  4 13  4  0
  4 19  4  0
  4 24  4  0
  6 23  4  0
  7 16  1  0
  7 21  4  0
  8 18  1  0
  9 20  4  0
  9 22  4  0
 10 17  1  0
 10 25  1  0
 11 16  4  0
 11 19  4  0
 12 15  4  0
 12 22  4  0
 14 24  4  0
 14 25  4  0
 15 17  4  0
 17 20  4  0
 18 23  1  0
 19 25  4  0
M  END
$$$$

 Created by Python create_sdf_string function

 25 28  0  0  0  0  0  0  0  0999 V2000
   13.1533   -5.2399   21.0682 C   0  0  0  0  0  0  0  0  0  0  0  0
   10.4729   -4.0295   17.6135 C   0  0  0  0  0  0  0  0  0  0  0  0
   10.4789   -4.3641   20.9564 C   0  0  0  0  0  0  0  0  0  0  0  0
    8.7421   -5.1412   16.3650 C   0  0  0  0  0  0  0  0  0  0  0  0
   11.4353   -2.9204   17.8044 C   0  0  0  0  0  0  0  0  0  0  0  0
   11.1529   -4.3028   22.1277 C   0  0  0  0  0  0  0  0  0  0  0  0
   11.1290   -4.8502   19.8052 C   0  0  0  0  0  0  0  0  0  0  0  0
   12.4329   -4.2159   24.4224 C   0  0  0  0  0  0  0  0  0  0  0  0
    3.4740   -9.0387   16.5022 C   0  0  0  0  0  0  0  0  0  0  0  0
    6.8384   -7.9290   17.5282 N   0  0  0  0  0  0  0  0  0  0  0  0
    9.4126   -5.9853   18.4899 C   0  0  0  0  0  0  0  0  0  0  0  0
    4.2064  -10.3242   18.3302 C   0  0  0  0  0  0  0  0  0  0  0  0
    9.6599   -4.1551   16.4796 N   0  0  0  0  0  0  0  0  0  0  0  0
    7.0644   -6.4612   15.7375 N   0  0  0  0  0  0  0  0  0  0  0  0
    5.3549   -9.6322   18.3190 C   0  0  0  0  0  0  0  0  0  0  0  0
   10.3704   -4.9638   18.6510 C   0  0  0  0  0  0  0  0  0  0  0  0
    5.5935   -8.6419   17.4234 C   0  0  0  0  0  0  0  0  0  0  0  0
   13.0726   -4.6648   23.3394 O   0  0  0  0  0  0  0  0  0  0  0  0
    8.5955   -6.0705   17.3996 C   0  0  0  0  0  0  0  0  0  0  0  0
    4.6223   -8.3832   16.5030 C   0  0  0  0  0  0  0  0  0  0  0  0
   12.4690   -5.2624   19.9024 C   0  0  0  0  0  0  0  0  0  0  0  0
    3.2548   -9.9919   17.4189 C   0  0  0  0  0  0  0  0  0  0  0  0
   12.4767   -4.7393   22.1790 C   0  0  0  0  0  0  0  0  0  0  0  0
    7.8593   -5.3772   15.3569 N   0  0  0  0  0  0  0  0  0  0  0  0
    7.4412   -6.9038   16.9283 C   0  0  0  0  0  0  0  0  0  0  0  0
  1 21  4  0
  1 23  4  0
  2  5  1  0
  2 13  4  0
  2 16  4  0
  3  6  4  0
  3  7  4  0
  4 13  4  0
  4 19  4  0
  4 24  4  0
  6 23  4  0
  7 16  1  0
  7 21  4  0
  8 18  1  0
  9 20  4  0
  9 22  4  0
 10 17  1  0
 10 25  1  0
 11 16  4  0
 11 19  4  0
 12 15  4  0
 12 22  4  0
 14 24  4  0
 14 25  4  0
 15 17  4  0
 17 20  4  0
 18 23  1  0
 19 25  4  0
M  END
$$$$

 Created by Python create_sdf_string function

 25 28  0  0  0  0  0  0  0  0999 V2000
   13.1533   -5.2399   21.0682 C   0  0  0  0  0  0  0  0  0  0  0  0
   10.4729   -4.0295   17.6135 C   0  0  0  0  0  0  0  0  0  0  0  0
   10.4789   -4.3641   20.9564 C   0  0  0  0  0  0  0  0  0  0  0  0
    8.7421   -5.1412   16.3650 C   0  0  0  0  0  0  0  0  0  0  0  0
   11.4353   -2.9204   17.8044 C   0  0  0  0  0  0  0  0  0  0  0  0
   11.1529   -4.3028   22.1277 C   0  0  0  0  0  0  0  0  0  0  0  0
   11.1290   -4.8502   19.8052 C   0  0  0  0  0  0  0  0  0  0  0  0
   12.4329   -4.2159   24.4224 C   0  0  0  0  0  0  0  0  0  0  0  0
    3.4740   -9.0387   16.5022 C   0  0  0  0  0  0  0  0  0  0  0  0
    6.8384   -7.9290   17.5282 N   0  0  0  0  0  0  0  0  0  0  0  0
    9.4126   -5.9853   18.4899 C   0  0  0  0  0  0  0  0  0  0  0  0
    4.2064  -10.3242   18.3302 C   0  0  0  0  0  0  0  0  0  0  0  0
    9.6599   -4.1551   16.4796 N   0  0  0  0  0  0  0  0  0  0  0  0
    7.0644   -6.4612   15.7375 N   0  0  0  0  0  0  0  0  0  0  0  0
    5.3549   -9.6322   18.3190 C   0  0  0  0  0  0  0  0  0  0  0  0
   10.3704   -4.9638   18.6510 C   0  0  0  0  0  0  0  0  0  0  0  0
    5.5935   -8.6419   17.4234 C   0  0  0  0  0  0  0  0  0  0  0  0
   13.0726   -4.6648   23.3394 O   0  0  0  0  0  0  0  0  0  0  0  0
    8.5955   -6.0705   17.3996 C   0  0  0  0  0  0  0  0  0  0  0  0
    4.6223   -8.3832   16.5030 C   0  0  0  0  0  0  0  0  0  0  0  0
   12.4690   -5.2624   19.9024 C   0  0  0  0  0  0  0  0  0  0  0  0
    3.2548   -9.9919   17.4189 C   0  0  0  0  0  0  0  0  0  0  0  0
   12.4767   -4.7393   22.1790 C   0  0  0  0  0  0  0  0  0  0  0  0
    7.8593   -5.3772   15.3569 N   0  0  0  0  0  0  0  0  0  0  0  0
    7.4412   -6.9038   16.9283 C   0  0  0  0  0  0  0  0  0  0  0  0
  1 21  4  0
  1 23  4  0
  2  5  1  0
  2 13  4  0
  2 16  4  0
  3  6  4  0
  3  7  4  0
  4 13  4  0
  4 19  4  0
  4 24  4  0
  6 23  4  0
  7 16  1  0
  7 21  4  0
  8 18  1  0
  9 20  4  0
  9 22  4  0
 10 17  1  0
 10 25  1  0
 11 16  4  0
 11 19  4  0
 12 15  4  0
 12 22  4  0
 14 24  4  0
 14 25  4  0
 15 17  4  0
 17 20  4  0
 18 23  1  0
 19 25  4  0
M  END
$$$$

 Created by Python create_sdf_string function

 25 28  0  0  0  0  0  0  0  0999 V2000
   13.1533   -5.2399   21.0682 C   0  0  0  0  0  0  0  0  0  0  0  0
   10.4729   -4.0295   17.6135 C   0  0  0  0  0  0  0  0  0  0  0  0
   10.4789   -4.3641   20.9564 C   0  0  0  0  0  0  0  0  0  0  0  0
    8.7421   -5.1412   16.3650 C   0  0  0  0  0  0  0  0  0  0  0  0
   11.4353   -2.9204   17.8044 C   0  0  0  0  0  0  0  0  0  0  0  0
   11.1529   -4.3028   22.1277 C   0  0  0  0  0  0  0  0  0  0  0  0
   11.1290   -4.8502   19.8052 C   0  0  0  0  0  0  0  0  0  0  0  0
   12.4329   -4.2159   24.4224 C   0  0  0  0  0  0  0  0  0  0  0  0
    3.4740   -9.0387   16.5022 C   0  0  0  0  0  0  0  0  0  0  0  0
    6.8384   -7.9290   17.5282 N   0  0  0  0  0  0  0  0  0  0  0  0
    9.4126   -5.9853   18.4899 C   0  0  0  0  0  0  0  0  0  0  0  0
    4.2064  -10.3242   18.3302 C   0  0  0  0  0  0  0  0  0  0  0  0
    9.6599   -4.1551   16.4796 N   0  0  0  0  0  0  0  0  0  0  0  0
    7.0644   -6.4612   15.7375 N   0  0  0  0  0  0  0  0  0  0  0  0
    5.3549   -9.6322   18.3190 C   0  0  0  0  0  0  0  0  0  0  0  0
   10.3704   -4.9638   18.6510 C   0  0  0  0  0  0  0  0  0  0  0  0
    5.5935   -8.6419   17.4234 C   0  0  0  0  0  0  0  0  0  0  0  0
   13.0726   -4.6648   23.3394 O   0  0  0  0  0  0  0  0  0  0  0  0
    8.5955   -6.0705   17.3996 C   0  0  0  0  0  0  0  0  0  0  0  0
    4.6223   -8.3832   16.5030 C   0  0  0  0  0  0  0  0  0  0  0  0
   12.4690   -5.2624   19.9024 C   0  0  0  0  0  0  0  0  0  0  0  0
    3.2548   -9.9919   17.4189 C   0  0  0  0  0  0  0  0  0  0  0  0
   12.4767   -4.7393   22.1790 C   0  0  0  0  0  0  0  0  0  0  0  0
    7.8593   -5.3772   15.3569 N   0  0  0  0  0  0  0  0  0  0  0  0
    7.4412   -6.9038   16.9283 C   0  0  0  0  0  0  0  0  0  0  0  0
  1 21  4  0
  1 23  4  0
  2  5  1  0
  2 13  4  0
  2 16  4  0
  3  6  4  0
  3  7  4  0
  4 13  4  0
  4 19  4  0
  4 24  4  0
  6 23  4  0
  7 16  1  0
  7 21  4  0
  8 18  1  0
  9 20  4  0
  9 22  4  0
 10 17  1  0
 10 25  1  0
 11 16  4  0
 11 19  4  0
 12 15  4  0
 12 22  4  0
 14 24  4  0
 14 25  4  0
 15 17  4  0
 17 20  4  0
 18 23  1  0
 19 25  4  0
M  END
$$$$

 Created by Python create_sdf_string function

 25 28  0  0  0  0  0  0  0  0999 V2000
   13.1533   -5.2399   21.0682 C   0  0  0  0  0  0  0  0  0  0  0  0
   10.4729   -4.0295   17.6135 C   0  0  0  0  0  0  0  0  0  0  0  0
   10.4789   -4.3641   20.9564 C   0  0  0  0  0  0  0  0  0  0  0  0
    8.7421   -5.1412   16.3650 C   0  0  0  0  0  0  0  0  0  0  0  0
   11.4353   -2.9204   17.8044 C   0  0  0  0  0  0  0  0  0  0  0  0
   11.1529   -4.3028   22.1277 C   0  0  0  0  0  0  0  0  0  0  0  0
   11.1290   -4.8502   19.8052 C   0  0  0  0  0  0  0  0  0  0  0  0
   12.4329   -4.2159   24.4224 C   0  0  0  0  0  0  0  0  0  0  0  0
    3.4740   -9.0387   16.5022 C   0  0  0  0  0  0  0  0  0  0  0  0
    6.8384   -7.9290   17.5282 N   0  0  0  0  0  0  0  0  0  0  0  0
    9.4126   -5.9853   18.4899 C   0  0  0  0  0  0  0  0  0  0  0  0
    4.2064  -10.3242   18.3302 C   0  0  0  0  0  0  0  0  0  0  0  0
    9.6599   -4.1551   16.4796 N   0  0  0  0  0  0  0  0  0  0  0  0
    7.0644   -6.4612   15.7375 N   0  0  0  0  0  0  0  0  0  0  0  0
    5.3549   -9.6322   18.3190 C   0  0  0  0  0  0  0  0  0  0  0  0
   10.3704   -4.9638   18.6510 C   0  0  0  0  0  0  0  0  0  0  0  0
    5.5935   -8.6419   17.4234 C   0  0  0  0  0  0  0  0  0  0  0  0
   13.0726   -4.6648   23.3394 O   0  0  0  0  0  0  0  0  0  0  0  0
    8.5955   -6.0705   17.3996 C   0  0  0  0  0  0  0  0  0  0  0  0
    4.6223   -8.3832   16.5030 C   0  0  0  0  0  0  0  0  0  0  0  0
   12.4690   -5.2624   19.9024 C   0  0  0  0  0  0  0  0  0  0  0  0
    3.2548   -9.9919   17.4189 C   0  0  0  0  0  0  0  0  0  0  0  0
   12.4767   -4.7393   22.1790 C   0  0  0  0  0  0  0  0  0  0  0  0
    7.8593   -5.3772   15.3569 N   0  0  0  0  0  0  0  0  0  0  0  0
    7.4412   -6.9038   16.9283 C   0  0  0  0  0  0  0  0  0  0  0  0
  1 21  4  0
  1 23  4  0
  2  5  1  0
  2 13  4  0
  2 16  4  0
  3  6  4  0
  3  7  4  0
  4 13  4  0
  4 19  4  0
  4 24  4  0
  6 23  4  0
  7 16  1  0
  7 21  4  0
  8 18  1  0
  9 20  4  0
  9 22  4  0
 10 17  1  0
 10 25  1  0
 11 16  4  0
 11 19  4  0
 12 15  4  0
 12 22  4  0
 14 24  4  0
 14 25  4  0
 15 17  4  0
 17 20  4  0
 18 23  1  0
 19 25  4  0
M  END
$$$$

 Created by Python create_sdf_string function

 25 28  0  0  0  0  0  0  0  0999 V2000
   13.1533   -5.2399   21.0682 C   0  0  0  0  0  0  0  0  0  0  0  0
   10.4729   -4.0295   17.6135 C   0  0  0  0  0  0  0  0  0  0  0  0
   10.4789   -4.3641   20.9564 C   0  0  0  0  0  0  0  0  0  0  0  0
    8.7421   -5.1412   16.3650 C   0  0  0  0  0  0  0  0  0  0  0  0
   11.4353   -2.9204   17.8044 C   0  0  0  0  0  0  0  0  0  0  0  0
   11.1529   -4.3028   22.1277 C   0  0  0  0  0  0  0  0  0  0  0  0
   11.1290   -4.8502   19.8052 C   0  0  0  0  0  0  0  0  0  0  0  0
   12.4329   -4.2159   24.4224 C   0  0  0  0  0  0  0  0  0  0  0  0
    3.4740   -9.0387   16.5022 C   0  0  0  0  0  0  0  0  0  0  0  0
    6.8384   -7.9290   17.5282 N   0  0  0  0  0  0  0  0  0  0  0  0
    9.4126   -5.9853   18.4899 C   0  0  0  0  0  0  0  0  0  0  0  0
    4.2064  -10.3242   18.3302 C   0  0  0  0  0  0  0  0  0  0  0  0
    9.6599   -4.1551   16.4796 N   0  0  0  0  0  0  0  0  0  0  0  0
    7.0644   -6.4612   15.7375 N   0  0  0  0  0  0  0  0  0  0  0  0
    5.3549   -9.6322   18.3190 C   0  0  0  0  0  0  0  0  0  0  0  0
   10.3704   -4.9638   18.6510 C   0  0  0  0  0  0  0  0  0  0  0  0
    5.5935   -8.6419   17.4234 C   0  0  0  0  0  0  0  0  0  0  0  0
   13.0726   -4.6648   23.3394 O   0  0  0  0  0  0  0  0  0  0  0  0
    8.5955   -6.0705   17.3996 C   0  0  0  0  0  0  0  0  0  0  0  0
    4.6223   -8.3832   16.5030 C   0  0  0  0  0  0  0  0  0  0  0  0
   12.4690   -5.2624   19.9024 C   0  0  0  0  0  0  0  0  0  0  0  0
    3.2548   -9.9919   17.4189 C   0  0  0  0  0  0  0  0  0  0  0  0
   12.4767   -4.7393   22.1790 C   0  0  0  0  0  0  0  0  0  0  0  0
    7.8593   -5.3772   15.3569 N   0  0  0  0  0  0  0  0  0  0  0  0
    7.4412   -6.9038   16.9283 C   0  0  0  0  0  0  0  0  0  0  0  0
  1 21  4  0
  1 23  4  0
  2  5  1  0
  2 13  4  0
  2 16  4  0
  3  6  4  0
  3  7  4  0
  4 13  4  0
  4 19  4  0
  4 24  4  0
  6 23  4  0
  7 16  1  0
  7 21  4  0
  8 18  1  0
  9 20  4  0
  9 22  4  0
 10 17  1  0
 10 25  1  0
 11 16  4  0
 11 19  4  0
 12 15  4  0
 12 22  4  0
 14 24  4  0
 14 25  4  0
 15 17  4  0
 17 20  4  0
 18 23  1  0
 19 25  4  0
M  END
$$$$

 Created by Python create_sdf_string function

 25 28  0  0  0  0  0  0  0  0999 V2000
   13.1533   -5.2399   21.0682 C   0  0  0  0  0  0  0  0  0  0  0  0
   10.4729   -4.0295   17.6135 C   0  0  0  0  0  0  0  0  0  0  0  0
   10.4789   -4.3641   20.9564 C   0  0  0  0  0  0  0  0  0  0  0  0
    8.7421   -5.1412   16.3650 C   0  0  0  0  0  0  0  0  0  0  0  0
   11.4353   -2.9204   17.8044 C   0  0  0  0  0  0  0  0  0  0  0  0
   11.1529   -4.3028   22.1277 C   0  0  0  0  0  0  0  0  0  0  0  0
   11.1290   -4.8502   19.8052 C   0  0  0  0  0  0  0  0  0  0  0  0
   12.4329   -4.2159   24.4224 C   0  0  0  0  0  0  0  0  0  0  0  0
    3.4740   -9.0387   16.5022 C   0  0  0  0  0  0  0  0  0  0  0  0
    6.8384   -7.9290   17.5282 N   0  0  0  0  0  0  0  0  0  0  0  0
    9.4126   -5.9853   18.4899 C   0  0  0  0  0  0  0  0  0  0  0  0
    4.2064  -10.3242   18.3302 C   0  0  0  0  0  0  0  0  0  0  0  0
    9.6599   -4.1551   16.4796 N   0  0  0  0  0  0  0  0  0  0  0  0
    7.0644   -6.4612   15.7375 N   0  0  0  0  0  0  0  0  0  0  0  0
    5.3549   -9.6322   18.3190 C   0  0  0  0  0  0  0  0  0  0  0  0
   10.3704   -4.9638   18.6510 C   0  0  0  0  0  0  0  0  0  0  0  0
    5.5935   -8.6419   17.4234 C   0  0  0  0  0  0  0  0  0  0  0  0
   13.0726   -4.6648   23.3394 O   0  0  0  0  0  0  0  0  0  0  0  0
    8.5955   -6.0705   17.3996 C   0  0  0  0  0  0  0  0  0  0  0  0
    4.6223   -8.3832   16.5030 C   0  0  0  0  0  0  0  0  0  0  0  0
   12.4690   -5.2624   19.9024 C   0  0  0  0  0  0  0  0  0  0  0  0
    3.2548   -9.9919   17.4189 C   0  0  0  0  0  0  0  0  0  0  0  0
   12.4767   -4.7393   22.1790 C   0  0  0  0  0  0  0  0  0  0  0  0
    7.8593   -5.3772   15.3569 N   0  0  0  0  0  0  0  0  0  0  0  0
    7.4412   -6.9038   16.9283 C   0  0  0  0  0  0  0  0  0  0  0  0
  1 21  4  0
  1 23  4  0
  2  5  1  0
  2 13  4  0
  2 16  4  0
  3  6  4  0
  3  7  4  0
  4 13  4  0
  4 19  4  0
  4 24  4  0
  6 23  4  0
  7 16  1  0
  7 21  4  0
  8 18  1  0
  9 20  4  0
  9 22  4  0
 10 17  1  0
 10 25  1  0
 11 16  4  0
 11 19  4  0
 12 15  4  0
 12 22  4  0
 14 24  4  0
 14 25  4  0
 15 17  4  0
 17 20  4  0
 18 23  1  0
 19 25  4  0
M  END
$$$$

 Created by Python create_sdf_string function

 25 28  0  0  0  0  0  0  0  0999 V2000
   13.1533   -5.2399   21.0682 C   0  0  0  0  0  0  0  0  0  0  0  0
   10.4729   -4.0295   17.6135 C   0  0  0  0  0  0  0  0  0  0  0  0
   10.4789   -4.3641   20.9564 C   0  0  0  0  0  0  0  0  0  0  0  0
    8.7421   -5.1412   16.3650 C   0  0  0  0  0  0  0  0  0  0  0  0
   11.4353   -2.9204   17.8044 C   0  0  0  0  0  0  0  0  0  0  0  0
   11.1529   -4.3028   22.1277 C   0  0  0  0  0  0  0  0  0  0  0  0
   11.1290   -4.8502   19.8052 C   0  0  0  0  0  0  0  0  0  0  0  0
   12.4329   -4.2159   24.4224 C   0  0  0  0  0  0  0  0  0  0  0  0
    3.4740   -9.0387   16.5022 C   0  0  0  0  0  0  0  0  0  0  0  0
    6.8384   -7.9290   17.5282 N   0  0  0  0  0  0  0  0  0  0  0  0
    9.4126   -5.9853   18.4899 C   0  0  0  0  0  0  0  0  0  0  0  0
    4.2064  -10.3242   18.3302 C   0  0  0  0  0  0  0  0  0  0  0  0
    9.6599   -4.1551   16.4796 N   0  0  0  0  0  0  0  0  0  0  0  0
    7.0644   -6.4612   15.7375 N   0  0  0  0  0  0  0  0  0  0  0  0
    5.3549   -9.6322   18.3190 C   0  0  0  0  0  0  0  0  0  0  0  0
   10.3704   -4.9638   18.6510 C   0  0  0  0  0  0  0  0  0  0  0  0
    5.5935   -8.6419   17.4234 C   0  0  0  0  0  0  0  0  0  0  0  0
   13.0726   -4.6648   23.3394 O   0  0  0  0  0  0  0  0  0  0  0  0
    8.5955   -6.0705   17.3996 C   0  0  0  0  0  0  0  0  0  0  0  0
    4.6223   -8.3832   16.5030 C   0  0  0  0  0  0  0  0  0  0  0  0
   12.4690   -5.2624   19.9024 C   0  0  0  0  0  0  0  0  0  0  0  0
    3.2548   -9.9919   17.4189 C   0  0  0  0  0  0  0  0  0  0  0  0
   12.4767   -4.7393   22.1790 C   0  0  0  0  0  0  0  0  0  0  0  0
    7.8593   -5.3772   15.3569 N   0  0  0  0  0  0  0  0  0  0  0  0
    7.4412   -6.9038   16.9283 C   0  0  0  0  0  0  0  0  0  0  0  0
  1 21  4  0
  1 23  4  0
  2  5  1  0
  2 13  4  0
  2 16  4  0
  3  6  4  0
  3  7  4  0
  4 13  4  0
  4 19  4  0
  4 24  4  0
  6 23  4  0
  7 16  1  0
  7 21  4  0
  8 18  1  0
  9 20  4  0
  9 22  4  0
 10 17  1  0
 10 25  1  0
 11 16  4  0
 11 19  4  0
 12 15  4  0
 12 22  4  0
 14 24  4  0
 14 25  4  0
 15 17  4  0
 17 20  4  0
 18 23  1  0
 19 25  4  0
M  END
$$$$

 Created by Python create_sdf_string function

 25 28  0  0  0  0  0  0  0  0999 V2000
   13.1533   -5.2399   21.0682 C   0  0  0  0  0  0  0  0  0  0  0  0
   10.4729   -4.0295   17.6135 C   0  0  0  0  0  0  0  0  0  0  0  0
   10.4789   -4.3641   20.9564 C   0  0  0  0  0  0  0  0  0  0  0  0
    8.7421   -5.1412   16.3650 C   0  0  0  0  0  0  0  0  0  0  0  0
   11.4353   -2.9204   17.8044 C   0  0  0  0  0  0  0  0  0  0  0  0
   11.1529   -4.3028   22.1277 C   0  0  0  0  0  0  0  0  0  0  0  0
   11.1290   -4.8502   19.8052 C   0  0  0  0  0  0  0  0  0  0  0  0
   12.4329   -4.2159   24.4224 C   0  0  0  0  0  0  0  0  0  0  0  0
    3.4740   -9.0387   16.5022 C   0  0  0  0  0  0  0  0  0  0  0  0
    6.8384   -7.9290   17.5282 N   0  0  0  0  0  0  0  0  0  0  0  0
    9.4126   -5.9853   18.4899 C   0  0  0  0  0  0  0  0  0  0  0  0
    4.2064  -10.3242   18.3302 C   0  0  0  0  0  0  0  0  0  0  0  0
    9.6599   -4.1551   16.4796 N   0  0  0  0  0  0  0  0  0  0  0  0
    7.0644   -6.4612   15.7375 N   0  0  0  0  0  0  0  0  0  0  0  0
    5.3549   -9.6322   18.3190 C   0  0  0  0  0  0  0  0  0  0  0  0
   10.3704   -4.9638   18.6510 C   0  0  0  0  0  0  0  0  0  0  0  0
    5.5935   -8.6419   17.4234 C   0  0  0  0  0  0  0  0  0  0  0  0
   13.0726   -4.6648   23.3394 O   0  0  0  0  0  0  0  0  0  0  0  0
    8.5955   -6.0705   17.3996 C   0  0  0  0  0  0  0  0  0  0  0  0
    4.6223   -8.3832   16.5030 C   0  0  0  0  0  0  0  0  0  0  0  0
   12.4690   -5.2624   19.9024 C   0  0  0  0  0  0  0  0  0  0  0  0
    3.2548   -9.9919   17.4189 C   0  0  0  0  0  0  0  0  0  0  0  0
   12.4767   -4.7393   22.1790 C   0  0  0  0  0  0  0  0  0  0  0  0
    7.8593   -5.3772   15.3569 N   0  0  0  0  0  0  0  0  0  0  0  0
    7.4412   -6.9038   16.9283 C   0  0  0  0  0  0  0  0  0  0  0  0
  1 21  4  0
  1 23  4  0
  2  5  1  0
  2 13  4  0
  2 16  4  0
  3  6  4  0
  3  7  4  0
  4 13  4  0
  4 19  4  0
  4 24  4  0
  6 23  4  0
  7 16  1  0
  7 21  4  0
  8 18  1  0
  9 20  4  0
  9 22  4  0
 10 17  1  0
 10 25  1  0
 11 16  4  0
 11 19  4  0
 12 15  4  0
 12 22  4  0
 14 24  4  0
 14 25  4  0
 15 17  4  0
 17 20  4  0
 18 23  1  0
 19 25  4  0
M  END
$$$$

 Created by Python create_sdf_string function

 25 28  0  0  0  0  0  0  0  0999 V2000
   13.1533   -5.2399   21.0682 C   0  0  0  0  0  0  0  0  0  0  0  0
   10.4729   -4.0295   17.6135 C   0  0  0  0  0  0  0  0  0  0  0  0
   10.4789   -4.3641   20.9564 C   0  0  0  0  0  0  0  0  0  0  0  0
    8.7421   -5.1412   16.3650 C   0  0  0  0  0  0  0  0  0  0  0  0
   11.4353   -2.9204   17.8044 C   0  0  0  0  0  0  0  0  0  0  0  0
   11.1529   -4.3028   22.1277 C   0  0  0  0  0  0  0  0  0  0  0  0
   11.1290   -4.8502   19.8052 C   0  0  0  0  0  0  0  0  0  0  0  0
   12.4329   -4.2159   24.4224 C   0  0  0  0  0  0  0  0  0  0  0  0
    3.4740   -9.0387   16.5022 C   0  0  0  0  0  0  0  0  0  0  0  0
    6.8384   -7.9290   17.5282 N   0  0  0  0  0  0  0  0  0  0  0  0
    9.4126   -5.9853   18.4899 C   0  0  0  0  0  0  0  0  0  0  0  0
    4.2064  -10.3242   18.3302 C   0  0  0  0  0  0  0  0  0  0  0  0
    9.6599   -4.1551   16.4796 N   0  0  0  0  0  0  0  0  0  0  0  0
    7.0644   -6.4612   15.7375 N   0  0  0  0  0  0  0  0  0  0  0  0
    5.3549   -9.6322   18.3190 C   0  0  0  0  0  0  0  0  0  0  0  0
   10.3704   -4.9638   18.6510 C   0  0  0  0  0  0  0  0  0  0  0  0
    5.5935   -8.6419   17.4234 C   0  0  0  0  0  0  0  0  0  0  0  0
   13.0726   -4.6648   23.3394 O   0  0  0  0  0  0  0  0  0  0  0  0
    8.5955   -6.0705   17.3996 C   0  0  0  0  0  0  0  0  0  0  0  0
    4.6223   -8.3832   16.5030 C   0  0  0  0  0  0  0  0  0  0  0  0
   12.4690   -5.2624   19.9024 C   0  0  0  0  0  0  0  0  0  0  0  0
    3.2548   -9.9919   17.4189 C   0  0  0  0  0  0  0  0  0  0  0  0
   12.4767   -4.7393   22.1790 C   0  0  0  0  0  0  0  0  0  0  0  0
    7.8593   -5.3772   15.3569 N   0  0  0  0  0  0  0  0  0  0  0  0
    7.4412   -6.9038   16.9283 C   0  0  0  0  0  0  0  0  0  0  0  0
  1 21  4  0
  1 23  4  0
  2  5  1  0
  2 13  4  0
  2 16  4  0
  3  6  4  0
  3  7  4  0
  4 13  4  0
  4 19  4  0
  4 24  4  0
  6 23  4  0
  7 16  1  0
  7 21  4  0
  8 18  1  0
  9 20  4  0
  9 22  4  0
 10 17  1  0
 10 25  1  0
 11 16  4  0
 11 19  4  0
 12 15  4  0
 12 22  4  0
 14 24  4  0
 14 25  4  0
 15 17  4  0
 17 20  4  0
 18 23  1  0
 19 25  4  0
M  END
$$$$

 Created by Python create_sdf_string function

 25 28  0  0  0  0  0  0  0  0999 V2000
   13.1533   -5.2399   21.0682 C   0  0  0  0  0  0  0  0  0  0  0  0
   10.4729   -4.0295   17.6135 C   0  0  0  0  0  0  0  0  0  0  0  0
   10.4789   -4.3641   20.9564 C   0  0  0  0  0  0  0  0  0  0  0  0
    8.7421   -5.1412   16.3650 C   0  0  0  0  0  0  0  0  0  0  0  0
   11.4353   -2.9204   17.8044 C   0  0  0  0  0  0  0  0  0  0  0  0
   11.1529   -4.3028   22.1277 C   0  0  0  0  0  0  0  0  0  0  0  0
   11.1290   -4.8502   19.8052 C   0  0  0  0  0  0  0  0  0  0  0  0
   12.4329   -4.2159   24.4224 C   0  0  0  0  0  0  0  0  0  0  0  0
    3.4740   -9.0387   16.5022 C   0  0  0  0  0  0  0  0  0  0  0  0
    6.8384   -7.9290   17.5282 N   0  0  0  0  0  0  0  0  0  0  0  0
    9.4126   -5.9853   18.4899 C   0  0  0  0  0  0  0  0  0  0  0  0
    4.2064  -10.3242   18.3302 C   0  0  0  0  0  0  0  0  0  0  0  0
    9.6599   -4.1551   16.4796 N   0  0  0  0  0  0  0  0  0  0  0  0
    7.0644   -6.4612   15.7375 N   0  0  0  0  0  0  0  0  0  0  0  0
    5.3549   -9.6322   18.3190 C   0  0  0  0  0  0  0  0  0  0  0  0
   10.3704   -4.9638   18.6510 C   0  0  0  0  0  0  0  0  0  0  0  0
    5.5935   -8.6419   17.4234 C   0  0  0  0  0  0  0  0  0  0  0  0
   13.0726   -4.6648   23.3394 O   0  0  0  0  0  0  0  0  0  0  0  0
    8.5955   -6.0705   17.3996 C   0  0  0  0  0  0  0  0  0  0  0  0
    4.6223   -8.3832   16.5030 C   0  0  0  0  0  0  0  0  0  0  0  0
   12.4690   -5.2624   19.9024 C   0  0  0  0  0  0  0  0  0  0  0  0
    3.2548   -9.9919   17.4189 C   0  0  0  0  0  0  0  0  0  0  0  0
   12.4767   -4.7393   22.1790 C   0  0  0  0  0  0  0  0  0  0  0  0
    7.8593   -5.3772   15.3569 N   0  0  0  0  0  0  0  0  0  0  0  0
    7.4412   -6.9038   16.9283 C   0  0  0  0  0  0  0  0  0  0  0  0
  1 21  4  0
  1 23  4  0
  2  5  1  0
  2 13  4  0
  2 16  4  0
  3  6  4  0
  3  7  4  0
  4 13  4  0
  4 19  4  0
  4 24  4  0
  6 23  4  0
  7 16  1  0
  7 21  4  0
  8 18  1  0
  9 20  4  0
  9 22  4  0
 10 17  1  0
 10 25  1  0
 11 16  4  0
 11 19  4  0
 12 15  4  0
 12 22  4  0
 14 24  4  0
 14 25  4  0
 15 17  4  0
 17 20  4  0
 18 23  1  0
 19 25  4  0
M  END
$$$$

 Created by Python create_sdf_string function

 25 28  0  0  0  0  0  0  0  0999 V2000
   13.1533   -5.2399   21.0682 C   0  0  0  0  0  0  0  0  0  0  0  0
   10.4729   -4.0295   17.6135 C   0  0  0  0  0  0  0  0  0  0  0  0
   10.4789   -4.3641   20.9564 C   0  0  0  0  0  0  0  0  0  0  0  0
    8.7421   -5.1412   16.3650 C   0  0  0  0  0  0  0  0  0  0  0  0
   11.4353   -2.9204   17.8044 C   0  0  0  0  0  0  0  0  0  0  0  0
   11.1529   -4.3028   22.1277 C   0  0  0  0  0  0  0  0  0  0  0  0
   11.1290   -4.8502   19.8052 C   0  0  0  0  0  0  0  0  0  0  0  0
   12.4329   -4.2159   24.4224 C   0  0  0  0  0  0  0  0  0  0  0  0
    3.4740   -9.0387   16.5022 C   0  0  0  0  0  0  0  0  0  0  0  0
    6.8384   -7.9290   17.5282 N   0  0  0  0  0  0  0  0  0  0  0  0
    9.4126   -5.9853   18.4899 C   0  0  0  0  0  0  0  0  0  0  0  0
    4.2064  -10.3242   18.3302 C   0  0  0  0  0  0  0  0  0  0  0  0
    9.6599   -4.1551   16.4796 N   0  0  0  0  0  0  0  0  0  0  0  0
    7.0644   -6.4612   15.7375 N   0  0  0  0  0  0  0  0  0  0  0  0
    5.3549   -9.6322   18.3190 C   0  0  0  0  0  0  0  0  0  0  0  0
   10.3704   -4.9638   18.6510 C   0  0  0  0  0  0  0  0  0  0  0  0
    5.5935   -8.6419   17.4234 C   0  0  0  0  0  0  0  0  0  0  0  0
   13.0726   -4.6648   23.3394 O   0  0  0  0  0  0  0  0  0  0  0  0
    8.5955   -6.0705   17.3996 C   0  0  0  0  0  0  0  0  0  0  0  0
    4.6223   -8.3832   16.5030 C   0  0  0  0  0  0  0  0  0  0  0  0
   12.4690   -5.2624   19.9024 C   0  0  0  0  0  0  0  0  0  0  0  0
    3.2548   -9.9919   17.4189 C   0  0  0  0  0  0  0  0  0  0  0  0
   12.4767   -4.7393   22.1790 C   0  0  0  0  0  0  0  0  0  0  0  0
    7.8593   -5.3772   15.3569 N   0  0  0  0  0  0  0  0  0  0  0  0
    7.4412   -6.9038   16.9283 C   0  0  0  0  0  0  0  0  0  0  0  0
  1 21  4  0
  1 23  4  0
  2  5  1  0
  2 13  4  0
  2 16  4  0
  3  6  4  0
  3  7  4  0
  4 13  4  0
  4 19  4  0
  4 24  4  0
  6 23  4  0
  7 16  1  0
  7 21  4  0
  8 18  1  0
  9 20  4  0
  9 22  4  0
 10 17  1  0
 10 25  1  0
 11 16  4  0
 11 19  4  0
 12 15  4  0
 12 22  4  0
 14 24  4  0
 14 25  4  0
 15 17  4  0
 17 20  4  0
 18 23  1  0
 19 25  4  0
M  END
$$$$

 Created by Python create_sdf_string function

 25 28  0  0  0  0  0  0  0  0999 V2000
   13.1533   -5.2399   21.0682 C   0  0  0  0  0  0  0  0  0  0  0  0
   10.4729   -4.0295   17.6135 C   0  0  0  0  0  0  0  0  0  0  0  0
   10.4789   -4.3641   20.9564 C   0  0  0  0  0  0  0  0  0  0  0  0
    8.7421   -5.1412   16.3650 C   0  0  0  0  0  0  0  0  0  0  0  0
   11.4353   -2.9204   17.8044 C   0  0  0  0  0  0  0  0  0  0  0  0
   11.1529   -4.3028   22.1277 C   0  0  0  0  0  0  0  0  0  0  0  0
   11.1290   -4.8502   19.8052 C   0  0  0  0  0  0  0  0  0  0  0  0
   12.4329   -4.2159   24.4224 C   0  0  0  0  0  0  0  0  0  0  0  0
    3.4740   -9.0387   16.5022 C   0  0  0  0  0  0  0  0  0  0  0  0
    6.8384   -7.9290   17.5282 N   0  0  0  0  0  0  0  0  0  0  0  0
    9.4126   -5.9853   18.4899 C   0  0  0  0  0  0  0  0  0  0  0  0
    4.2064  -10.3242   18.3302 C   0  0  0  0  0  0  0  0  0  0  0  0
    9.6599   -4.1551   16.4796 N   0  0  0  0  0  0  0  0  0  0  0  0
    7.0644   -6.4612   15.7375 N   0  0  0  0  0  0  0  0  0  0  0  0
    5.3549   -9.6322   18.3190 C   0  0  0  0  0  0  0  0  0  0  0  0
   10.3704   -4.9638   18.6510 C   0  0  0  0  0  0  0  0  0  0  0  0
    5.5935   -8.6419   17.4234 C   0  0  0  0  0  0  0  0  0  0  0  0
   13.0726   -4.6648   23.3394 O   0  0  0  0  0  0  0  0  0  0  0  0
    8.5955   -6.0705   17.3996 C   0  0  0  0  0  0  0  0  0  0  0  0
    4.6223   -8.3832   16.5030 C   0  0  0  0  0  0  0  0  0  0  0  0
   12.4690   -5.2624   19.9024 C   0  0  0  0  0  0  0  0  0  0  0  0
    3.2548   -9.9919   17.4189 C   0  0  0  0  0  0  0  0  0  0  0  0
   12.4767   -4.7393   22.1790 C   0  0  0  0  0  0  0  0  0  0  0  0
    7.8593   -5.3772   15.3569 N   0  0  0  0  0  0  0  0  0  0  0  0
    7.4412   -6.9038   16.9283 C   0  0  0  0  0  0  0  0  0  0  0  0
  1 21  4  0
  1 23  4  0
  2  5  1  0
  2 13  4  0
  2 16  4  0
  3  6  4  0
  3  7  4  0
  4 13  4  0
  4 19  4  0
  4 24  4  0
  6 23  4  0
  7 16  1  0
  7 21  4  0
  8 18  1  0
  9 20  4  0
  9 22  4  0
 10 17  1  0
 10 25  1  0
 11 16  4  0
 11 19  4  0
 12 15  4  0
 12 22  4  0
 14 24  4  0
 14 25  4  0
 15 17  4  0
 17 20  4  0
 18 23  1  0
 19 25  4  0
M  END
$$$$

 Created by Python create_sdf_string function

 25 28  0  0  0  0  0  0  0  0999 V2000
   13.1533   -5.2399   21.0682 C   0  0  0  0  0  0  0  0  0  0  0  0
   10.4729   -4.0295   17.6135 C   0  0  0  0  0  0  0  0  0  0  0  0
   10.4789   -4.3641   20.9564 C   0  0  0  0  0  0  0  0  0  0  0  0
    8.7421   -5.1412   16.3650 C   0  0  0  0  0  0  0  0  0  0  0  0
   11.4353   -2.9204   17.8044 C   0  0  0  0  0  0  0  0  0  0  0  0
   11.1529   -4.3028   22.1277 C   0  0  0  0  0  0  0  0  0  0  0  0
   11.1290   -4.8502   19.8052 C   0  0  0  0  0  0  0  0  0  0  0  0
   12.4329   -4.2159   24.4224 C   0  0  0  0  0  0  0  0  0  0  0  0
    3.4740   -9.0387   16.5022 C   0  0  0  0  0  0  0  0  0  0  0  0
    6.8384   -7.9290   17.5282 N   0  0  0  0  0  0  0  0  0  0  0  0
    9.4126   -5.9853   18.4899 C   0  0  0  0  0  0  0  0  0  0  0  0
    4.2064  -10.3242   18.3302 C   0  0  0  0  0  0  0  0  0  0  0  0
    9.6599   -4.1551   16.4796 N   0  0  0  0  0  0  0  0  0  0  0  0
    7.0644   -6.4612   15.7375 N   0  0  0  0  0  0  0  0  0  0  0  0
    5.3549   -9.6322   18.3190 C   0  0  0  0  0  0  0  0  0  0  0  0
   10.3704   -4.9638   18.6510 C   0  0  0  0  0  0  0  0  0  0  0  0
    5.5935   -8.6419   17.4234 C   0  0  0  0  0  0  0  0  0  0  0  0
   13.0726   -4.6648   23.3394 O   0  0  0  0  0  0  0  0  0  0  0  0
    8.5955   -6.0705   17.3996 C   0  0  0  0  0  0  0  0  0  0  0  0
    4.6223   -8.3832   16.5030 C   0  0  0  0  0  0  0  0  0  0  0  0
   12.4690   -5.2624   19.9024 C   0  0  0  0  0  0  0  0  0  0  0  0
    3.2548   -9.9919   17.4189 C   0  0  0  0  0  0  0  0  0  0  0  0
   12.4767   -4.7393   22.1790 C   0  0  0  0  0  0  0  0  0  0  0  0
    7.8593   -5.3772   15.3569 N   0  0  0  0  0  0  0  0  0  0  0  0
    7.4412   -6.9038   16.9283 C   0  0  0  0  0  0  0  0  0  0  0  0
  1 21  4  0
  1 23  4  0
  2  5  1  0
  2 13  4  0
  2 16  4  0
  3  6  4  0
  3  7  4  0
  4 13  4  0
  4 19  4  0
  4 24  4  0
  6 23  4  0
  7 16  1  0
  7 21  4  0
  8 18  1  0
  9 20  4  0
  9 22  4  0
 10 17  1  0
 10 25  1  0
 11 16  4  0
 11 19  4  0
 12 15  4  0
 12 22  4  0
 14 24  4  0
 14 25  4  0
 15 17  4  0
 17 20  4  0
 18 23  1  0
 19 25  4  0
M  END
$$$$

 Created by Python create_sdf_string function

 25 28  0  0  0  0  0  0  0  0999 V2000
   13.1533   -5.2399   21.0682 C   0  0  0  0  0  0  0  0  0  0  0  0
   10.4729   -4.0295   17.6135 C   0  0  0  0  0  0  0  0  0  0  0  0
   10.4789   -4.3641   20.9564 C   0  0  0  0  0  0  0  0  0  0  0  0
    8.7421   -5.1412   16.3650 C   0  0  0  0  0  0  0  0  0  0  0  0
   11.4353   -2.9204   17.8044 C   0  0  0  0  0  0  0  0  0  0  0  0
   11.1529   -4.3028   22.1277 C   0  0  0  0  0  0  0  0  0  0  0  0
   11.1290   -4.8502   19.8052 C   0  0  0  0  0  0  0  0  0  0  0  0
   12.4329   -4.2159   24.4224 C   0  0  0  0  0  0  0  0  0  0  0  0
    3.4740   -9.0387   16.5022 C   0  0  0  0  0  0  0  0  0  0  0  0
    6.8384   -7.9290   17.5282 N   0  0  0  0  0  0  0  0  0  0  0  0
    9.4126   -5.9853   18.4899 C   0  0  0  0  0  0  0  0  0  0  0  0
    4.2064  -10.3242   18.3302 C   0  0  0  0  0  0  0  0  0  0  0  0
    9.6599   -4.1551   16.4796 N   0  0  0  0  0  0  0  0  0  0  0  0
    7.0644   -6.4612   15.7375 N   0  0  0  0  0  0  0  0  0  0  0  0
    5.3549   -9.6322   18.3190 C   0  0  0  0  0  0  0  0  0  0  0  0
   10.3704   -4.9638   18.6510 C   0  0  0  0  0  0  0  0  0  0  0  0
    5.5935   -8.6419   17.4234 C   0  0  0  0  0  0  0  0  0  0  0  0
   13.0726   -4.6648   23.3394 O   0  0  0  0  0  0  0  0  0  0  0  0
    8.5955   -6.0705   17.3996 C   0  0  0  0  0  0  0  0  0  0  0  0
    4.6223   -8.3832   16.5030 C   0  0  0  0  0  0  0  0  0  0  0  0
   12.4690   -5.2624   19.9024 C   0  0  0  0  0  0  0  0  0  0  0  0
    3.2548   -9.9919   17.4189 C   0  0  0  0  0  0  0  0  0  0  0  0
   12.4767   -4.7393   22.1790 C   0  0  0  0  0  0  0  0  0  0  0  0
    7.8593   -5.3772   15.3569 N   0  0  0  0  0  0  0  0  0  0  0  0
    7.4412   -6.9038   16.9283 C   0  0  0  0  0  0  0  0  0  0  0  0
  1 21  4  0
  1 23  4  0
  2  5  1  0
  2 13  4  0
  2 16  4  0
  3  6  4  0
  3  7  4  0
  4 13  4  0
  4 19  4  0
  4 24  4  0
  6 23  4  0
  7 16  1  0
  7 21  4  0
  8 18  1  0
  9 20  4  0
  9 22  4  0
 10 17  1  0
 10 25  1  0
 11 16  4  0
 11 19  4  0
 12 15  4  0
 12 22  4  0
 14 24  4  0
 14 25  4  0
 15 17  4  0
 17 20  4  0
 18 23  1  0
 19 25  4  0
M  END
$$$$

 Created by Python create_sdf_string function

 25 28  0  0  0  0  0  0  0  0999 V2000
   13.1533   -5.2399   21.0682 C   0  0  0  0  0  0  0  0  0  0  0  0
   10.4729   -4.0295   17.6135 C   0  0  0  0  0  0  0  0  0  0  0  0
   10.4789   -4.3641   20.9564 C   0  0  0  0  0  0  0  0  0  0  0  0
    8.7421   -5.1412   16.3650 C   0  0  0  0  0  0  0  0  0  0  0  0
   11.4353   -2.9204   17.8044 C   0  0  0  0  0  0  0  0  0  0  0  0
   11.1529   -4.3028   22.1277 C   0  0  0  0  0  0  0  0  0  0  0  0
   11.1290   -4.8502   19.8052 C   0  0  0  0  0  0  0  0  0  0  0  0
   12.4329   -4.2159   24.4224 C   0  0  0  0  0  0  0  0  0  0  0  0
    3.4740   -9.0387   16.5022 C   0  0  0  0  0  0  0  0  0  0  0  0
    6.8384   -7.9290   17.5282 N   0  0  0  0  0  0  0  0  0  0  0  0
    9.4126   -5.9853   18.4899 C   0  0  0  0  0  0  0  0  0  0  0  0
    4.2064  -10.3242   18.3302 C   0  0  0  0  0  0  0  0  0  0  0  0
    9.6599   -4.1551   16.4796 N   0  0  0  0  0  0  0  0  0  0  0  0
    7.0644   -6.4612   15.7375 N   0  0  0  0  0  0  0  0  0  0  0  0
    5.3549   -9.6322   18.3190 C   0  0  0  0  0  0  0  0  0  0  0  0
   10.3704   -4.9638   18.6510 C   0  0  0  0  0  0  0  0  0  0  0  0
    5.5935   -8.6419   17.4234 C   0  0  0  0  0  0  0  0  0  0  0  0
   13.0726   -4.6648   23.3394 O   0  0  0  0  0  0  0  0  0  0  0  0
    8.5955   -6.0705   17.3996 C   0  0  0  0  0  0  0  0  0  0  0  0
    4.6223   -8.3832   16.5030 C   0  0  0  0  0  0  0  0  0  0  0  0
   12.4690   -5.2624   19.9024 C   0  0  0  0  0  0  0  0  0  0  0  0
    3.2548   -9.9919   17.4189 C   0  0  0  0  0  0  0  0  0  0  0  0
   12.4767   -4.7393   22.1790 C   0  0  0  0  0  0  0  0  0  0  0  0
    7.8593   -5.3772   15.3569 N   0  0  0  0  0  0  0  0  0  0  0  0
    7.4412   -6.9038   16.9283 C   0  0  0  0  0  0  0  0  0  0  0  0
  1 21  4  0
  1 23  4  0
  2  5  1  0
  2 13  4  0
  2 16  4  0
  3  6  4  0
  3  7  4  0
  4 13  4  0
  4 19  4  0
  4 24  4  0
  6 23  4  0
  7 16  1  0
  7 21  4  0
  8 18  1  0
  9 20  4  0
  9 22  4  0
 10 17  1  0
 10 25  1  0
 11 16  4  0
 11 19  4  0
 12 15  4  0
 12 22  4  0
 14 24  4  0
 14 25  4  0
 15 17  4  0
 17 20  4  0
 18 23  1  0
 19 25  4  0
M  END
$$$$

 Created by Python create_sdf_string function

 25 28  0  0  0  0  0  0  0  0999 V2000
   13.1533   -5.2399   21.0682 C   0  0  0  0  0  0  0  0  0  0  0  0
   10.4729   -4.0295   17.6135 C   0  0  0  0  0  0  0  0  0  0  0  0
   10.4789   -4.3641   20.9564 C   0  0  0  0  0  0  0  0  0  0  0  0
    8.7421   -5.1412   16.3650 C   0  0  0  0  0  0  0  0  0  0  0  0
   11.4353   -2.9204   17.8044 C   0  0  0  0  0  0  0  0  0  0  0  0
   11.1529   -4.3028   22.1277 C   0  0  0  0  0  0  0  0  0  0  0  0
   11.1290   -4.8502   19.8052 C   0  0  0  0  0  0  0  0  0  0  0  0
   12.4329   -4.2159   24.4224 C   0  0  0  0  0  0  0  0  0  0  0  0
    3.4740   -9.0387   16.5022 C   0  0  0  0  0  0  0  0  0  0  0  0
    6.8384   -7.9290   17.5282 N   0  0  0  0  0  0  0  0  0  0  0  0
    9.4126   -5.9853   18.4899 C   0  0  0  0  0  0  0  0  0  0  0  0
    4.2064  -10.3242   18.3302 C   0  0  0  0  0  0  0  0  0  0  0  0
    9.6599   -4.1551   16.4796 N   0  0  0  0  0  0  0  0  0  0  0  0
    7.0644   -6.4612   15.7375 N   0  0  0  0  0  0  0  0  0  0  0  0
    5.3549   -9.6322   18.3190 C   0  0  0  0  0  0  0  0  0  0  0  0
   10.3704   -4.9638   18.6510 C   0  0  0  0  0  0  0  0  0  0  0  0
    5.5935   -8.6419   17.4234 C   0  0  0  0  0  0  0  0  0  0  0  0
   13.0726   -4.6648   23.3394 O   0  0  0  0  0  0  0  0  0  0  0  0
    8.5955   -6.0705   17.3996 C   0  0  0  0  0  0  0  0  0  0  0  0
    4.6223   -8.3832   16.5030 C   0  0  0  0  0  0  0  0  0  0  0  0
   12.4690   -5.2624   19.9024 C   0  0  0  0  0  0  0  0  0  0  0  0
    3.2548   -9.9919   17.4189 C   0  0  0  0  0  0  0  0  0  0  0  0
   12.4767   -4.7393   22.1790 C   0  0  0  0  0  0  0  0  0  0  0  0
    7.8593   -5.3772   15.3569 N   0  0  0  0  0  0  0  0  0  0  0  0
    7.4412   -6.9038   16.9283 C   0  0  0  0  0  0  0  0  0  0  0  0
  1 21  4  0
  1 23  4  0
  2  5  1  0
  2 13  4  0
  2 16  4  0
  3  6  4  0
  3  7  4  0
  4 13  4  0
  4 19  4  0
  4 24  4  0
  6 23  4  0
  7 16  1  0
  7 21  4  0
  8 18  1  0
  9 20  4  0
  9 22  4  0
 10 17  1  0
 10 25  1  0
 11 16  4  0
 11 19  4  0
 12 15  4  0
 12 22  4  0
 14 24  4  0
 14 25  4  0
 15 17  4  0
 17 20  4  0
 18 23  1  0
 19 25  4  0
M  END
$$$$

 Created by Python create_sdf_string function

 25 28  0  0  0  0  0  0  0  0999 V2000
   13.1533   -5.2399   21.0682 C   0  0  0  0  0  0  0  0  0  0  0  0
   10.4729   -4.0295   17.6135 C   0  0  0  0  0  0  0  0  0  0  0  0
   10.4789   -4.3641   20.9564 C   0  0  0  0  0  0  0  0  0  0  0  0
    8.7421   -5.1412   16.3650 C   0  0  0  0  0  0  0  0  0  0  0  0
   11.4353   -2.9204   17.8044 C   0  0  0  0  0  0  0  0  0  0  0  0
   11.1529   -4.3028   22.1277 C   0  0  0  0  0  0  0  0  0  0  0  0
   11.1290   -4.8502   19.8052 C   0  0  0  0  0  0  0  0  0  0  0  0
   12.4329   -4.2159   24.4224 C   0  0  0  0  0  0  0  0  0  0  0  0
    3.4740   -9.0387   16.5022 C   0  0  0  0  0  0  0  0  0  0  0  0
    6.8384   -7.9290   17.5282 N   0  0  0  0  0  0  0  0  0  0  0  0
    9.4126   -5.9853   18.4899 C   0  0  0  0  0  0  0  0  0  0  0  0
    4.2064  -10.3242   18.3302 C   0  0  0  0  0  0  0  0  0  0  0  0
    9.6599   -4.1551   16.4796 N   0  0  0  0  0  0  0  0  0  0  0  0
    7.0644   -6.4612   15.7375 N   0  0  0  0  0  0  0  0  0  0  0  0
    5.3549   -9.6322   18.3190 C   0  0  0  0  0  0  0  0  0  0  0  0
   10.3704   -4.9638   18.6510 C   0  0  0  0  0  0  0  0  0  0  0  0
    5.5935   -8.6419   17.4234 C   0  0  0  0  0  0  0  0  0  0  0  0
   13.0726   -4.6648   23.3394 O   0  0  0  0  0  0  0  0  0  0  0  0
    8.5955   -6.0705   17.3996 C   0  0  0  0  0  0  0  0  0  0  0  0
    4.6223   -8.3832   16.5030 C   0  0  0  0  0  0  0  0  0  0  0  0
   12.4690   -5.2624   19.9024 C   0  0  0  0  0  0  0  0  0  0  0  0
    3.2548   -9.9919   17.4189 C   0  0  0  0  0  0  0  0  0  0  0  0
   12.4767   -4.7393   22.1790 C   0  0  0  0  0  0  0  0  0  0  0  0
    7.8593   -5.3772   15.3569 N   0  0  0  0  0  0  0  0  0  0  0  0
    7.4412   -6.9038   16.9283 C   0  0  0  0  0  0  0  0  0  0  0  0
  1 21  4  0
  1 23  4  0
  2  5  1  0
  2 13  4  0
  2 16  4  0
  3  6  4  0
  3  7  4  0
  4 13  4  0
  4 19  4  0
  4 24  4  0
  6 23  4  0
  7 16  1  0
  7 21  4  0
  8 18  1  0
  9 20  4  0
  9 22  4  0
 10 17  1  0
 10 25  1  0
 11 16  4  0
 11 19  4  0
 12 15  4  0
 12 22  4  0
 14 24  4  0
 14 25  4  0
 15 17  4  0
 17 20  4  0
 18 23  1  0
 19 25  4  0
M  END
$$$$

 Created by Python create_sdf_string function

 25 28  0  0  0  0  0  0  0  0999 V2000
   13.1533   -5.2399   21.0682 C   0  0  0  0  0  0  0  0  0  0  0  0
   10.4729   -4.0295   17.6135 C   0  0  0  0  0  0  0  0  0  0  0  0
   10.4789   -4.3641   20.9564 C   0  0  0  0  0  0  0  0  0  0  0  0
    8.7421   -5.1412   16.3650 C   0  0  0  0  0  0  0  0  0  0  0  0
   11.4353   -2.9204   17.8044 C   0  0  0  0  0  0  0  0  0  0  0  0
   11.1529   -4.3028   22.1277 C   0  0  0  0  0  0  0  0  0  0  0  0
   11.1290   -4.8502   19.8052 C   0  0  0  0  0  0  0  0  0  0  0  0
   12.4329   -4.2159   24.4224 C   0  0  0  0  0  0  0  0  0  0  0  0
    3.4740   -9.0387   16.5022 C   0  0  0  0  0  0  0  0  0  0  0  0
    6.8384   -7.9290   17.5282 N   0  0  0  0  0  0  0  0  0  0  0  0
    9.4126   -5.9853   18.4899 C   0  0  0  0  0  0  0  0  0  0  0  0
    4.2064  -10.3242   18.3302 C   0  0  0  0  0  0  0  0  0  0  0  0
    9.6599   -4.1551   16.4796 N   0  0  0  0  0  0  0  0  0  0  0  0
    7.0644   -6.4612   15.7375 N   0  0  0  0  0  0  0  0  0  0  0  0
    5.3549   -9.6322   18.3190 C   0  0  0  0  0  0  0  0  0  0  0  0
   10.3704   -4.9638   18.6510 C   0  0  0  0  0  0  0  0  0  0  0  0
    5.5935   -8.6419   17.4234 C   0  0  0  0  0  0  0  0  0  0  0  0
   13.0726   -4.6648   23.3394 O   0  0  0  0  0  0  0  0  0  0  0  0
    8.5955   -6.0705   17.3996 C   0  0  0  0  0  0  0  0  0  0  0  0
    4.6223   -8.3832   16.5030 C   0  0  0  0  0  0  0  0  0  0  0  0
   12.4690   -5.2624   19.9024 C   0  0  0  0  0  0  0  0  0  0  0  0
    3.2548   -9.9919   17.4189 C   0  0  0  0  0  0  0  0  0  0  0  0
   12.4767   -4.7393   22.1790 C   0  0  0  0  0  0  0  0  0  0  0  0
    7.8593   -5.3772   15.3569 N   0  0  0  0  0  0  0  0  0  0  0  0
    7.4412   -6.9038   16.9283 C   0  0  0  0  0  0  0  0  0  0  0  0
  1 21  4  0
  1 23  4  0
  2  5  1  0
  2 13  4  0
  2 16  4  0
  3  6  4  0
  3  7  4  0
  4 13  4  0
  4 19  4  0
  4 24  4  0
  6 23  4  0
  7 16  1  0
  7 21  4  0
  8 18  1  0
  9 20  4  0
  9 22  4  0
 10 17  1  0
 10 25  1  0
 11 16  4  0
 11 19  4  0
 12 15  4  0
 12 22  4  0
 14 24  4  0
 14 25  4  0
 15 17  4  0
 17 20  4  0
 18 23  1  0
 19 25  4  0
M  END
$$$$

 Created by Python create_sdf_string function

 25 28  0  0  0  0  0  0  0  0999 V2000
   13.1533   -5.2399   21.0682 C   0  0  0  0  0  0  0  0  0  0  0  0
   10.4729   -4.0295   17.6135 C   0  0  0  0  0  0  0  0  0  0  0  0
   10.4789   -4.3641   20.9564 C   0  0  0  0  0  0  0  0  0  0  0  0
    8.7421   -5.1412   16.3650 C   0  0  0  0  0  0  0  0  0  0  0  0
   11.4353   -2.9204   17.8044 C   0  0  0  0  0  0  0  0  0  0  0  0
   11.1529   -4.3028   22.1277 C   0  0  0  0  0  0  0  0  0  0  0  0
   11.1290   -4.8502   19.8052 C   0  0  0  0  0  0  0  0  0  0  0  0
   12.4329   -4.2159   24.4224 C   0  0  0  0  0  0  0  0  0  0  0  0
    3.4740   -9.0387   16.5022 C   0  0  0  0  0  0  0  0  0  0  0  0
    6.8384   -7.9290   17.5282 N   0  0  0  0  0  0  0  0  0  0  0  0
    9.4126   -5.9853   18.4899 C   0  0  0  0  0  0  0  0  0  0  0  0
    4.2064  -10.3242   18.3302 C   0  0  0  0  0  0  0  0  0  0  0  0
    9.6599   -4.1551   16.4796 N   0  0  0  0  0  0  0  0  0  0  0  0
    7.0644   -6.4612   15.7375 N   0  0  0  0  0  0  0  0  0  0  0  0
    5.3549   -9.6322   18.3190 C   0  0  0  0  0  0  0  0  0  0  0  0
   10.3704   -4.9638   18.6510 C   0  0  0  0  0  0  0  0  0  0  0  0
    5.5935   -8.6419   17.4234 C   0  0  0  0  0  0  0  0  0  0  0  0
   13.0726   -4.6648   23.3394 O   0  0  0  0  0  0  0  0  0  0  0  0
    8.5955   -6.0705   17.3996 C   0  0  0  0  0  0  0  0  0  0  0  0
    4.6223   -8.3832   16.5030 C   0  0  0  0  0  0  0  0  0  0  0  0
   12.4690   -5.2624   19.9024 C   0  0  0  0  0  0  0  0  0  0  0  0
    3.2548   -9.9919   17.4189 C   0  0  0  0  0  0  0  0  0  0  0  0
   12.4767   -4.7393   22.1790 C   0  0  0  0  0  0  0  0  0  0  0  0
    7.8593   -5.3772   15.3569 N   0  0  0  0  0  0  0  0  0  0  0  0
    7.4412   -6.9038   16.9283 C   0  0  0  0  0  0  0  0  0  0  0  0
  1 21  4  0
  1 23  4  0
  2  5  1  0
  2 13  4  0
  2 16  4  0
  3  6  4  0
  3  7  4  0
  4 13  4  0
  4 19  4  0
  4 24  4  0
  6 23  4  0
  7 16  1  0
  7 21  4  0
  8 18  1  0
  9 20  4  0
  9 22  4  0
 10 17  1  0
 10 25  1  0
 11 16  4  0
 11 19  4  0
 12 15  4  0
 12 22  4  0
 14 24  4  0
 14 25  4  0
 15 17  4  0
 17 20  4  0
 18 23  1  0
 19 25  4  0
M  END
$$$$

 Created by Python create_sdf_string function

 25 28  0  0  0  0  0  0  0  0999 V2000
   13.1533   -5.2399   21.0682 C   0  0  0  0  0  0  0  0  0  0  0  0
   10.4729   -4.0295   17.6135 C   0  0  0  0  0  0  0  0  0  0  0  0
   10.4789   -4.3641   20.9564 C   0  0  0  0  0  0  0  0  0  0  0  0
    8.7421   -5.1412   16.3650 C   0  0  0  0  0  0  0  0  0  0  0  0
   11.4353   -2.9204   17.8044 C   0  0  0  0  0  0  0  0  0  0  0  0
   11.1529   -4.3028   22.1277 C   0  0  0  0  0  0  0  0  0  0  0  0
   11.1290   -4.8502   19.8052 C   0  0  0  0  0  0  0  0  0  0  0  0
   12.4329   -4.2159   24.4224 C   0  0  0  0  0  0  0  0  0  0  0  0
    3.4740   -9.0387   16.5022 C   0  0  0  0  0  0  0  0  0  0  0  0
    6.8384   -7.9290   17.5282 N   0  0  0  0  0  0  0  0  0  0  0  0
    9.4126   -5.9853   18.4899 C   0  0  0  0  0  0  0  0  0  0  0  0
    4.2064  -10.3242   18.3302 C   0  0  0  0  0  0  0  0  0  0  0  0
    9.6599   -4.1551   16.4796 N   0  0  0  0  0  0  0  0  0  0  0  0
    7.0644   -6.4612   15.7375 N   0  0  0  0  0  0  0  0  0  0  0  0
    5.3549   -9.6322   18.3190 C   0  0  0  0  0  0  0  0  0  0  0  0
   10.3704   -4.9638   18.6510 C   0  0  0  0  0  0  0  0  0  0  0  0
    5.5935   -8.6419   17.4234 C   0  0  0  0  0  0  0  0  0  0  0  0
   13.0726   -4.6648   23.3394 O   0  0  0  0  0  0  0  0  0  0  0  0
    8.5955   -6.0705   17.3996 C   0  0  0  0  0  0  0  0  0  0  0  0
    4.6223   -8.3832   16.5030 C   0  0  0  0  0  0  0  0  0  0  0  0
   12.4690   -5.2624   19.9024 C   0  0  0  0  0  0  0  0  0  0  0  0
    3.2548   -9.9919   17.4189 C   0  0  0  0  0  0  0  0  0  0  0  0
   12.4767   -4.7393   22.1790 C   0  0  0  0  0  0  0  0  0  0  0  0
    7.8593   -5.3772   15.3569 N   0  0  0  0  0  0  0  0  0  0  0  0
    7.4412   -6.9038   16.9283 C   0  0  0  0  0  0  0  0  0  0  0  0
  1 21  4  0
  1 23  4  0
  2  5  1  0
  2 13  4  0
  2 16  4  0
  3  6  4  0
  3  7  4  0
  4 13  4  0
  4 19  4  0
  4 24  4  0
  6 23  4  0
  7 16  1  0
  7 21  4  0
  8 18  1  0
  9 20  4  0
  9 22  4  0
 10 17  1  0
 10 25  1  0
 11 16  4  0
 11 19  4  0
 12 15  4  0
 12 22  4  0
 14 24  4  0
 14 25  4  0
 15 17  4  0
 17 20  4  0
 18 23  1  0
 19 25  4  0
M  END
$$$$

 Created by Python create_sdf_string function

 25 28  0  0  0  0  0  0  0  0999 V2000
   13.1533   -5.2399   21.0682 C   0  0  0  0  0  0  0  0  0  0  0  0
   10.4729   -4.0295   17.6135 C   0  0  0  0  0  0  0  0  0  0  0  0
   10.4789   -4.3641   20.9564 C   0  0  0  0  0  0  0  0  0  0  0  0
    8.7421   -5.1412   16.3650 C   0  0  0  0  0  0  0  0  0  0  0  0
   11.4353   -2.9204   17.8044 C   0  0  0  0  0  0  0  0  0  0  0  0
   11.1529   -4.3028   22.1277 C   0  0  0  0  0  0  0  0  0  0  0  0
   11.1290   -4.8502   19.8052 C   0  0  0  0  0  0  0  0  0  0  0  0
   12.4329   -4.2159   24.4224 C   0  0  0  0  0  0  0  0  0  0  0  0
    3.4740   -9.0387   16.5022 C   0  0  0  0  0  0  0  0  0  0  0  0
    6.8384   -7.9290   17.5282 N   0  0  0  0  0  0  0  0  0  0  0  0
    9.4126   -5.9853   18.4899 C   0  0  0  0  0  0  0  0  0  0  0  0
    4.2064  -10.3242   18.3302 C   0  0  0  0  0  0  0  0  0  0  0  0
    9.6599   -4.1551   16.4796 N   0  0  0  0  0  0  0  0  0  0  0  0
    7.0644   -6.4612   15.7375 N   0  0  0  0  0  0  0  0  0  0  0  0
    5.3549   -9.6322   18.3190 C   0  0  0  0  0  0  0  0  0  0  0  0
   10.3704   -4.9638   18.6510 C   0  0  0  0  0  0  0  0  0  0  0  0
    5.5935   -8.6419   17.4234 C   0  0  0  0  0  0  0  0  0  0  0  0
   13.0726   -4.6648   23.3394 O   0  0  0  0  0  0  0  0  0  0  0  0
    8.5955   -6.0705   17.3996 C   0  0  0  0  0  0  0  0  0  0  0  0
    4.6223   -8.3832   16.5030 C   0  0  0  0  0  0  0  0  0  0  0  0
   12.4690   -5.2624   19.9024 C   0  0  0  0  0  0  0  0  0  0  0  0
    3.2548   -9.9919   17.4189 C   0  0  0  0  0  0  0  0  0  0  0  0
   12.4767   -4.7393   22.1790 C   0  0  0  0  0  0  0  0  0  0  0  0
    7.8593   -5.3772   15.3569 N   0  0  0  0  0  0  0  0  0  0  0  0
    7.4412   -6.9038   16.9283 C   0  0  0  0  0  0  0  0  0  0  0  0
  1 21  4  0
  1 23  4  0
  2  5  1  0
  2 13  4  0
  2 16  4  0
  3  6  4  0
  3  7  4  0
  4 13  4  0
  4 19  4  0
  4 24  4  0
  6 23  4  0
  7 16  1  0
  7 21  4  0
  8 18  1  0
  9 20  4  0
  9 22  4  0
 10 17  1  0
 10 25  1  0
 11 16  4  0
 11 19  4  0
 12 15  4  0
 12 22  4  0
 14 24  4  0
 14 25  4  0
 15 17  4  0
 17 20  4  0
 18 23  1  0
 19 25  4  0
M  END
$$$$

 Created by Python create_sdf_string function

 25 28  0  0  0  0  0  0  0  0999 V2000
   13.1533   -5.2399   21.0682 C   0  0  0  0  0  0  0  0  0  0  0  0
   10.4729   -4.0295   17.6135 C   0  0  0  0  0  0  0  0  0  0  0  0
   10.4789   -4.3641   20.9564 C   0  0  0  0  0  0  0  0  0  0  0  0
    8.7421   -5.1412   16.3650 C   0  0  0  0  0  0  0  0  0  0  0  0
   11.4353   -2.9204   17.8044 C   0  0  0  0  0  0  0  0  0  0  0  0
   11.1529   -4.3028   22.1277 C   0  0  0  0  0  0  0  0  0  0  0  0
   11.1290   -4.8502   19.8052 C   0  0  0  0  0  0  0  0  0  0  0  0
   12.4329   -4.2159   24.4224 C   0  0  0  0  0  0  0  0  0  0  0  0
    3.4740   -9.0387   16.5022 C   0  0  0  0  0  0  0  0  0  0  0  0
    6.8384   -7.9290   17.5282 N   0  0  0  0  0  0  0  0  0  0  0  0
    9.4126   -5.9853   18.4899 C   0  0  0  0  0  0  0  0  0  0  0  0
    4.2064  -10.3242   18.3302 C   0  0  0  0  0  0  0  0  0  0  0  0
    9.6599   -4.1551   16.4796 N   0  0  0  0  0  0  0  0  0  0  0  0
    7.0644   -6.4612   15.7375 N   0  0  0  0  0  0  0  0  0  0  0  0
    5.3549   -9.6322   18.3190 C   0  0  0  0  0  0  0  0  0  0  0  0
   10.3704   -4.9638   18.6510 C   0  0  0  0  0  0  0  0  0  0  0  0
    5.5935   -8.6419   17.4234 C   0  0  0  0  0  0  0  0  0  0  0  0
   13.0726   -4.6648   23.3394 O   0  0  0  0  0  0  0  0  0  0  0  0
    8.5955   -6.0705   17.3996 C   0  0  0  0  0  0  0  0  0  0  0  0
    4.6223   -8.3832   16.5030 C   0  0  0  0  0  0  0  0  0  0  0  0
   12.4690   -5.2624   19.9024 C   0  0  0  0  0  0  0  0  0  0  0  0
    3.2548   -9.9919   17.4189 C   0  0  0  0  0  0  0  0  0  0  0  0
   12.4767   -4.7393   22.1790 C   0  0  0  0  0  0  0  0  0  0  0  0
    7.8593   -5.3772   15.3569 N   0  0  0  0  0  0  0  0  0  0  0  0
    7.4412   -6.9038   16.9283 C   0  0  0  0  0  0  0  0  0  0  0  0
  1 21  4  0
  1 23  4  0
  2  5  1  0
  2 13  4  0
  2 16  4  0
  3  6  4  0
  3  7  4  0
  4 13  4  0
  4 19  4  0
  4 24  4  0
  6 23  4  0
  7 16  1  0
  7 21  4  0
  8 18  1  0
  9 20  4  0
  9 22  4  0
 10 17  1  0
 10 25  1  0
 11 16  4  0
 11 19  4  0
 12 15  4  0
 12 22  4  0
 14 24  4  0
 14 25  4  0
 15 17  4  0
 17 20  4  0
 18 23  1  0
 19 25  4  0
M  END
$$$$

 Created by Python create_sdf_string function

 25 28  0  0  0  0  0  0  0  0999 V2000
   13.1533   -5.2399   21.0682 C   0  0  0  0  0  0  0  0  0  0  0  0
   10.4729   -4.0295   17.6135 C   0  0  0  0  0  0  0  0  0  0  0  0
   10.4789   -4.3641   20.9564 C   0  0  0  0  0  0  0  0  0  0  0  0
    8.7421   -5.1412   16.3650 C   0  0  0  0  0  0  0  0  0  0  0  0
   11.4353   -2.9204   17.8044 C   0  0  0  0  0  0  0  0  0  0  0  0
   11.1529   -4.3028   22.1277 C   0  0  0  0  0  0  0  0  0  0  0  0
   11.1290   -4.8502   19.8052 C   0  0  0  0  0  0  0  0  0  0  0  0
   12.4329   -4.2159   24.4224 C   0  0  0  0  0  0  0  0  0  0  0  0
    3.4740   -9.0387   16.5022 C   0  0  0  0  0  0  0  0  0  0  0  0
    6.8384   -7.9290   17.5282 N   0  0  0  0  0  0  0  0  0  0  0  0
    9.4126   -5.9853   18.4899 C   0  0  0  0  0  0  0  0  0  0  0  0
    4.2064  -10.3242   18.3302 C   0  0  0  0  0  0  0  0  0  0  0  0
    9.6599   -4.1551   16.4796 N   0  0  0  0  0  0  0  0  0  0  0  0
    7.0644   -6.4612   15.7375 N   0  0  0  0  0  0  0  0  0  0  0  0
    5.3549   -9.6322   18.3190 C   0  0  0  0  0  0  0  0  0  0  0  0
   10.3704   -4.9638   18.6510 C   0  0  0  0  0  0  0  0  0  0  0  0
    5.5935   -8.6419   17.4234 C   0  0  0  0  0  0  0  0  0  0  0  0
   13.0726   -4.6648   23.3394 O   0  0  0  0  0  0  0  0  0  0  0  0
    8.5955   -6.0705   17.3996 C   0  0  0  0  0  0  0  0  0  0  0  0
    4.6223   -8.3832   16.5030 C   0  0  0  0  0  0  0  0  0  0  0  0
   12.4690   -5.2624   19.9024 C   0  0  0  0  0  0  0  0  0  0  0  0
    3.2548   -9.9919   17.4189 C   0  0  0  0  0  0  0  0  0  0  0  0
   12.4767   -4.7393   22.1790 C   0  0  0  0  0  0  0  0  0  0  0  0
    7.8593   -5.3772   15.3569 N   0  0  0  0  0  0  0  0  0  0  0  0
    7.4412   -6.9038   16.9283 C   0  0  0  0  0  0  0  0  0  0  0  0
  1 21  4  0
  1 23  4  0
  2  5  1  0
  2 13  4  0
  2 16  4  0
  3  6  4  0
  3  7  4  0
  4 13  4  0
  4 19  4  0
  4 24  4  0
  6 23  4  0
  7 16  1  0
  7 21  4  0
  8 18  1  0
  9 20  4  0
  9 22  4  0
 10 17  1  0
 10 25  1  0
 11 16  4  0
 11 19  4  0
 12 15  4  0
 12 22  4  0
 14 24  4  0
 14 25  4  0
 15 17  4  0
 17 20  4  0
 18 23  1  0
 19 25  4  0
M  END
$$$$

 Created by Python create_sdf_string function

 25 28  0  0  0  0  0  0  0  0999 V2000
   13.1533   -5.2399   21.0682 C   0  0  0  0  0  0  0  0  0  0  0  0
   10.4729   -4.0295   17.6135 C   0  0  0  0  0  0  0  0  0  0  0  0
   10.4789   -4.3641   20.9564 C   0  0  0  0  0  0  0  0  0  0  0  0
    8.7421   -5.1412   16.3650 C   0  0  0  0  0  0  0  0  0  0  0  0
   11.4353   -2.9204   17.8044 C   0  0  0  0  0  0  0  0  0  0  0  0
   11.1529   -4.3028   22.1277 C   0  0  0  0  0  0  0  0  0  0  0  0
   11.1290   -4.8502   19.8052 C   0  0  0  0  0  0  0  0  0  0  0  0
   12.4329   -4.2159   24.4224 C   0  0  0  0  0  0  0  0  0  0  0  0
    3.4740   -9.0387   16.5022 C   0  0  0  0  0  0  0  0  0  0  0  0
    6.8384   -7.9290   17.5282 N   0  0  0  0  0  0  0  0  0  0  0  0
    9.4126   -5.9853   18.4899 C   0  0  0  0  0  0  0  0  0  0  0  0
    4.2064  -10.3242   18.3302 C   0  0  0  0  0  0  0  0  0  0  0  0
    9.6599   -4.1551   16.4796 N   0  0  0  0  0  0  0  0  0  0  0  0
    7.0644   -6.4612   15.7375 N   0  0  0  0  0  0  0  0  0  0  0  0
    5.3549   -9.6322   18.3190 C   0  0  0  0  0  0  0  0  0  0  0  0
   10.3704   -4.9638   18.6510 C   0  0  0  0  0  0  0  0  0  0  0  0
    5.5935   -8.6419   17.4234 C   0  0  0  0  0  0  0  0  0  0  0  0
   13.0726   -4.6648   23.3394 O   0  0  0  0  0  0  0  0  0  0  0  0
    8.5955   -6.0705   17.3996 C   0  0  0  0  0  0  0  0  0  0  0  0
    4.6223   -8.3832   16.5030 C   0  0  0  0  0  0  0  0  0  0  0  0
   12.4690   -5.2624   19.9024 C   0  0  0  0  0  0  0  0  0  0  0  0
    3.2548   -9.9919   17.4189 C   0  0  0  0  0  0  0  0  0  0  0  0
   12.4767   -4.7393   22.1790 C   0  0  0  0  0  0  0  0  0  0  0  0
    7.8593   -5.3772   15.3569 N   0  0  0  0  0  0  0  0  0  0  0  0
    7.4412   -6.9038   16.9283 C   0  0  0  0  0  0  0  0  0  0  0  0
  1 21  4  0
  1 23  4  0
  2  5  1  0
  2 13  4  0
  2 16  4  0
  3  6  4  0
  3  7  4  0
  4 13  4  0
  4 19  4  0
  4 24  4  0
  6 23  4  0
  7 16  1  0
  7 21  4  0
  8 18  1  0
  9 20  4  0
  9 22  4  0
 10 17  1  0
 10 25  1  0
 11 16  4  0
 11 19  4  0
 12 15  4  0
 12 22  4  0
 14 24  4  0
 14 25  4  0
 15 17  4  0
 17 20  4  0
 18 23  1  0
 19 25  4  0
M  END
$$$$

 Created by Python create_sdf_string function

 25 28  0  0  0  0  0  0  0  0999 V2000
   13.1533   -5.2399   21.0682 C   0  0  0  0  0  0  0  0  0  0  0  0
   10.4729   -4.0295   17.6135 C   0  0  0  0  0  0  0  0  0  0  0  0
   10.4789   -4.3641   20.9564 C   0  0  0  0  0  0  0  0  0  0  0  0
    8.7421   -5.1412   16.3650 C   0  0  0  0  0  0  0  0  0  0  0  0
   11.4353   -2.9204   17.8044 C   0  0  0  0  0  0  0  0  0  0  0  0
   11.1529   -4.3028   22.1277 C   0  0  0  0  0  0  0  0  0  0  0  0
   11.1290   -4.8502   19.8052 C   0  0  0  0  0  0  0  0  0  0  0  0
   12.4329   -4.2159   24.4224 C   0  0  0  0  0  0  0  0  0  0  0  0
    3.4740   -9.0387   16.5022 C   0  0  0  0  0  0  0  0  0  0  0  0
    6.8384   -7.9290   17.5282 N   0  0  0  0  0  0  0  0  0  0  0  0
    9.4126   -5.9853   18.4899 C   0  0  0  0  0  0  0  0  0  0  0  0
    4.2064  -10.3242   18.3302 C   0  0  0  0  0  0  0  0  0  0  0  0
    9.6599   -4.1551   16.4796 N   0  0  0  0  0  0  0  0  0  0  0  0
    7.0644   -6.4612   15.7375 N   0  0  0  0  0  0  0  0  0  0  0  0
    5.3549   -9.6322   18.3190 C   0  0  0  0  0  0  0  0  0  0  0  0
   10.3704   -4.9638   18.6510 C   0  0  0  0  0  0  0  0  0  0  0  0
    5.5935   -8.6419   17.4234 C   0  0  0  0  0  0  0  0  0  0  0  0
   13.0726   -4.6648   23.3394 O   0  0  0  0  0  0  0  0  0  0  0  0
    8.5955   -6.0705   17.3996 C   0  0  0  0  0  0  0  0  0  0  0  0
    4.6223   -8.3832   16.5030 C   0  0  0  0  0  0  0  0  0  0  0  0
   12.4690   -5.2624   19.9024 C   0  0  0  0  0  0  0  0  0  0  0  0
    3.2548   -9.9919   17.4189 C   0  0  0  0  0  0  0  0  0  0  0  0
   12.4767   -4.7393   22.1790 C   0  0  0  0  0  0  0  0  0  0  0  0
    7.8593   -5.3772   15.3569 N   0  0  0  0  0  0  0  0  0  0  0  0
    7.4412   -6.9038   16.9283 C   0  0  0  0  0  0  0  0  0  0  0  0
  1 21  4  0
  1 23  4  0
  2  5  1  0
  2 13  4  0
  2 16  4  0
  3  6  4  0
  3  7  4  0
  4 13  4  0
  4 19  4  0
  4 24  4  0
  6 23  4  0
  7 16  1  0
  7 21  4  0
  8 18  1  0
  9 20  4  0
  9 22  4  0
 10 17  1  0
 10 25  1  0
 11 16  4  0
 11 19  4  0
 12 15  4  0
 12 22  4  0
 14 24  4  0
 14 25  4  0
 15 17  4  0
 17 20  4  0
 18 23  1  0
 19 25  4  0
M  END
$$$$

 Created by Python create_sdf_string function

 25 28  0  0  0  0  0  0  0  0999 V2000
   13.1533   -5.2399   21.0682 C   0  0  0  0  0  0  0  0  0  0  0  0
   10.4729   -4.0295   17.6135 C   0  0  0  0  0  0  0  0  0  0  0  0
   10.4789   -4.3641   20.9564 C   0  0  0  0  0  0  0  0  0  0  0  0
    8.7421   -5.1412   16.3650 C   0  0  0  0  0  0  0  0  0  0  0  0
   11.4353   -2.9204   17.8044 C   0  0  0  0  0  0  0  0  0  0  0  0
   11.1529   -4.3028   22.1277 C   0  0  0  0  0  0  0  0  0  0  0  0
   11.1290   -4.8502   19.8052 C   0  0  0  0  0  0  0  0  0  0  0  0
   12.4329   -4.2159   24.4224 C   0  0  0  0  0  0  0  0  0  0  0  0
    3.4740   -9.0387   16.5022 C   0  0  0  0  0  0  0  0  0  0  0  0
    6.8384   -7.9290   17.5282 N   0  0  0  0  0  0  0  0  0  0  0  0
    9.4126   -5.9853   18.4899 C   0  0  0  0  0  0  0  0  0  0  0  0
    4.2064  -10.3242   18.3302 C   0  0  0  0  0  0  0  0  0  0  0  0
    9.6599   -4.1551   16.4796 N   0  0  0  0  0  0  0  0  0  0  0  0
    7.0644   -6.4612   15.7375 N   0  0  0  0  0  0  0  0  0  0  0  0
    5.3549   -9.6322   18.3190 C   0  0  0  0  0  0  0  0  0  0  0  0
   10.3704   -4.9638   18.6510 C   0  0  0  0  0  0  0  0  0  0  0  0
    5.5935   -8.6419   17.4234 C   0  0  0  0  0  0  0  0  0  0  0  0
   13.0726   -4.6648   23.3394 O   0  0  0  0  0  0  0  0  0  0  0  0
    8.5955   -6.0705   17.3996 C   0  0  0  0  0  0  0  0  0  0  0  0
    4.6223   -8.3832   16.5030 C   0  0  0  0  0  0  0  0  0  0  0  0
   12.4690   -5.2624   19.9024 C   0  0  0  0  0  0  0  0  0  0  0  0
    3.2548   -9.9919   17.4189 C   0  0  0  0  0  0  0  0  0  0  0  0
   12.4767   -4.7393   22.1790 C   0  0  0  0  0  0  0  0  0  0  0  0
    7.8593   -5.3772   15.3569 N   0  0  0  0  0  0  0  0  0  0  0  0
    7.4412   -6.9038   16.9283 C   0  0  0  0  0  0  0  0  0  0  0  0
  1 21  4  0
  1 23  4  0
  2  5  1  0
  2 13  4  0
  2 16  4  0
  3  6  4  0
  3  7  4  0
  4 13  4  0
  4 19  4  0
  4 24  4  0
  6 23  4  0
  7 16  1  0
  7 21  4  0
  8 18  1  0
  9 20  4  0
  9 22  4  0
 10 17  1  0
 10 25  1  0
 11 16  4  0
 11 19  4  0
 12 15  4  0
 12 22  4  0
 14 24  4  0
 14 25  4  0
 15 17  4  0
 17 20  4  0
 18 23  1  0
 19 25  4  0
M  END
$$$$

 Created by Python create_sdf_string function

 25 28  0  0  0  0  0  0  0  0999 V2000
   13.1533   -5.2399   21.0682 C   0  0  0  0  0  0  0  0  0  0  0  0
   10.4729   -4.0295   17.6135 C   0  0  0  0  0  0  0  0  0  0  0  0
   10.4789   -4.3641   20.9564 C   0  0  0  0  0  0  0  0  0  0  0  0
    8.7421   -5.1412   16.3650 C   0  0  0  0  0  0  0  0  0  0  0  0
   11.4353   -2.9204   17.8044 C   0  0  0  0  0  0  0  0  0  0  0  0
   11.1529   -4.3028   22.1277 C   0  0  0  0  0  0  0  0  0  0  0  0
   11.1290   -4.8502   19.8052 C   0  0  0  0  0  0  0  0  0  0  0  0
   12.4329   -4.2159   24.4224 C   0  0  0  0  0  0  0  0  0  0  0  0
    3.4740   -9.0387   16.5022 C   0  0  0  0  0  0  0  0  0  0  0  0
    6.8384   -7.9290   17.5282 N   0  0  0  0  0  0  0  0  0  0  0  0
    9.4126   -5.9853   18.4899 C   0  0  0  0  0  0  0  0  0  0  0  0
    4.2064  -10.3242   18.3302 C   0  0  0  0  0  0  0  0  0  0  0  0
    9.6599   -4.1551   16.4796 N   0  0  0  0  0  0  0  0  0  0  0  0
    7.0644   -6.4612   15.7375 N   0  0  0  0  0  0  0  0  0  0  0  0
    5.3549   -9.6322   18.3190 C   0  0  0  0  0  0  0  0  0  0  0  0
   10.3704   -4.9638   18.6510 C   0  0  0  0  0  0  0  0  0  0  0  0
    5.5935   -8.6419   17.4234 C   0  0  0  0  0  0  0  0  0  0  0  0
   13.0726   -4.6648   23.3394 O   0  0  0  0  0  0  0  0  0  0  0  0
    8.5955   -6.0705   17.3996 C   0  0  0  0  0  0  0  0  0  0  0  0
    4.6223   -8.3832   16.5030 C   0  0  0  0  0  0  0  0  0  0  0  0
   12.4690   -5.2624   19.9024 C   0  0  0  0  0  0  0  0  0  0  0  0
    3.2548   -9.9919   17.4189 C   0  0  0  0  0  0  0  0  0  0  0  0
   12.4767   -4.7393   22.1790 C   0  0  0  0  0  0  0  0  0  0  0  0
    7.8593   -5.3772   15.3569 N   0  0  0  0  0  0  0  0  0  0  0  0
    7.4412   -6.9038   16.9283 C   0  0  0  0  0  0  0  0  0  0  0  0
  1 21  4  0
  1 23  4  0
  2  5  1  0
  2 13  4  0
  2 16  4  0
  3  6  4  0
  3  7  4  0
  4 13  4  0
  4 19  4  0
  4 24  4  0
  6 23  4  0
  7 16  1  0
  7 21  4  0
  8 18  1  0
  9 20  4  0
  9 22  4  0
 10 17  1  0
 10 25  1  0
 11 16  4  0
 11 19  4  0
 12 15  4  0
 12 22  4  0
 14 24  4  0
 14 25  4  0
 15 17  4  0
 17 20  4  0
 18 23  1  0
 19 25  4  0
M  END
$$$$

 Created by Python create_sdf_string function

 25 28  0  0  0  0  0  0  0  0999 V2000
   13.1533   -5.2399   21.0682 C   0  0  0  0  0  0  0  0  0  0  0  0
   10.4729   -4.0295   17.6135 C   0  0  0  0  0  0  0  0  0  0  0  0
   10.4789   -4.3641   20.9564 C   0  0  0  0  0  0  0  0  0  0  0  0
    8.7421   -5.1412   16.3650 C   0  0  0  0  0  0  0  0  0  0  0  0
   11.4353   -2.9204   17.8044 C   0  0  0  0  0  0  0  0  0  0  0  0
   11.1529   -4.3028   22.1277 C   0  0  0  0  0  0  0  0  0  0  0  0
   11.1290   -4.8502   19.8052 C   0  0  0  0  0  0  0  0  0  0  0  0
   12.4329   -4.2159   24.4224 C   0  0  0  0  0  0  0  0  0  0  0  0
    3.4740   -9.0387   16.5022 C   0  0  0  0  0  0  0  0  0  0  0  0
    6.8384   -7.9290   17.5282 N   0  0  0  0  0  0  0  0  0  0  0  0
    9.4126   -5.9853   18.4899 C   0  0  0  0  0  0  0  0  0  0  0  0
    4.2064  -10.3242   18.3302 C   0  0  0  0  0  0  0  0  0  0  0  0
    9.6599   -4.1551   16.4796 N   0  0  0  0  0  0  0  0  0  0  0  0
    7.0644   -6.4612   15.7375 N   0  0  0  0  0  0  0  0  0  0  0  0
    5.3549   -9.6322   18.3190 C   0  0  0  0  0  0  0  0  0  0  0  0
   10.3704   -4.9638   18.6510 C   0  0  0  0  0  0  0  0  0  0  0  0
    5.5935   -8.6419   17.4234 C   0  0  0  0  0  0  0  0  0  0  0  0
   13.0726   -4.6648   23.3394 O   0  0  0  0  0  0  0  0  0  0  0  0
    8.5955   -6.0705   17.3996 C   0  0  0  0  0  0  0  0  0  0  0  0
    4.6223   -8.3832   16.5030 C   0  0  0  0  0  0  0  0  0  0  0  0
   12.4690   -5.2624   19.9024 C   0  0  0  0  0  0  0  0  0  0  0  0
    3.2548   -9.9919   17.4189 C   0  0  0  0  0  0  0  0  0  0  0  0
   12.4767   -4.7393   22.1790 C   0  0  0  0  0  0  0  0  0  0  0  0
    7.8593   -5.3772   15.3569 N   0  0  0  0  0  0  0  0  0  0  0  0
    7.4412   -6.9038   16.9283 C   0  0  0  0  0  0  0  0  0  0  0  0
  1 21  4  0
  1 23  4  0
  2  5  1  0
  2 13  4  0
  2 16  4  0
  3  6  4  0
  3  7  4  0
  4 13  4  0
  4 19  4  0
  4 24  4  0
  6 23  4  0
  7 16  1  0
  7 21  4  0
  8 18  1  0
  9 20  4  0
  9 22  4  0
 10 17  1  0
 10 25  1  0
 11 16  4  0
 11 19  4  0
 12 15  4  0
 12 22  4  0
 14 24  4  0
 14 25  4  0
 15 17  4  0
 17 20  4  0
 18 23  1  0
 19 25  4  0
M  END
$$$$

 Created by Python create_sdf_string function

 25 28  0  0  0  0  0  0  0  0999 V2000
   13.1533   -5.2399   21.0682 C   0  0  0  0  0  0  0  0  0  0  0  0
   10.4729   -4.0295   17.6135 C   0  0  0  0  0  0  0  0  0  0  0  0
   10.4789   -4.3641   20.9564 C   0  0  0  0  0  0  0  0  0  0  0  0
    8.7421   -5.1412   16.3650 C   0  0  0  0  0  0  0  0  0  0  0  0
   11.4353   -2.9204   17.8044 C   0  0  0  0  0  0  0  0  0  0  0  0
   11.1529   -4.3028   22.1277 C   0  0  0  0  0  0  0  0  0  0  0  0
   11.1290   -4.8502   19.8052 C   0  0  0  0  0  0  0  0  0  0  0  0
   12.4329   -4.2159   24.4224 C   0  0  0  0  0  0  0  0  0  0  0  0
    3.4740   -9.0387   16.5022 C   0  0  0  0  0  0  0  0  0  0  0  0
    6.8384   -7.9290   17.5282 N   0  0  0  0  0  0  0  0  0  0  0  0
    9.4126   -5.9853   18.4899 C   0  0  0  0  0  0  0  0  0  0  0  0
    4.2064  -10.3242   18.3302 C   0  0  0  0  0  0  0  0  0  0  0  0
    9.6599   -4.1551   16.4796 N   0  0  0  0  0  0  0  0  0  0  0  0
    7.0644   -6.4612   15.7375 N   0  0  0  0  0  0  0  0  0  0  0  0
    5.3549   -9.6322   18.3190 C   0  0  0  0  0  0  0  0  0  0  0  0
   10.3704   -4.9638   18.6510 C   0  0  0  0  0  0  0  0  0  0  0  0
    5.5935   -8.6419   17.4234 C   0  0  0  0  0  0  0  0  0  0  0  0
   13.0726   -4.6648   23.3394 O   0  0  0  0  0  0  0  0  0  0  0  0
    8.5955   -6.0705   17.3996 C   0  0  0  0  0  0  0  0  0  0  0  0
    4.6223   -8.3832   16.5030 C   0  0  0  0  0  0  0  0  0  0  0  0
   12.4690   -5.2624   19.9024 C   0  0  0  0  0  0  0  0  0  0  0  0
    3.2548   -9.9919   17.4189 C   0  0  0  0  0  0  0  0  0  0  0  0
   12.4767   -4.7393   22.1790 C   0  0  0  0  0  0  0  0  0  0  0  0
    7.8593   -5.3772   15.3569 N   0  0  0  0  0  0  0  0  0  0  0  0
    7.4412   -6.9038   16.9283 C   0  0  0  0  0  0  0  0  0  0  0  0
  1 21  4  0
  1 23  4  0
  2  5  1  0
  2 13  4  0
  2 16  4  0
  3  6  4  0
  3  7  4  0
  4 13  4  0
  4 19  4  0
  4 24  4  0
  6 23  4  0
  7 16  1  0
  7 21  4  0
  8 18  1  0
  9 20  4  0
  9 22  4  0
 10 17  1  0
 10 25  1  0
 11 16  4  0
 11 19  4  0
 12 15  4  0
 12 22  4  0
 14 24  4  0
 14 25  4  0
 15 17  4  0
 17 20  4  0
 18 23  1  0
 19 25  4  0
M  END
$$$$

 Created by Python create_sdf_string function

 25 28  0  0  0  0  0  0  0  0999 V2000
   13.1533   -5.2399   21.0682 C   0  0  0  0  0  0  0  0  0  0  0  0
   10.4729   -4.0295   17.6135 C   0  0  0  0  0  0  0  0  0  0  0  0
   10.4789   -4.3641   20.9564 C   0  0  0  0  0  0  0  0  0  0  0  0
    8.7421   -5.1412   16.3650 C   0  0  0  0  0  0  0  0  0  0  0  0
   11.4353   -2.9204   17.8044 C   0  0  0  0  0  0  0  0  0  0  0  0
   11.1529   -4.3028   22.1277 C   0  0  0  0  0  0  0  0  0  0  0  0
   11.1290   -4.8502   19.8052 C   0  0  0  0  0  0  0  0  0  0  0  0
   12.4329   -4.2159   24.4224 C   0  0  0  0  0  0  0  0  0  0  0  0
    3.4740   -9.0387   16.5022 C   0  0  0  0  0  0  0  0  0  0  0  0
    6.8384   -7.9290   17.5282 N   0  0  0  0  0  0  0  0  0  0  0  0
    9.4126   -5.9853   18.4899 C   0  0  0  0  0  0  0  0  0  0  0  0
    4.2064  -10.3242   18.3302 C   0  0  0  0  0  0  0  0  0  0  0  0
    9.6599   -4.1551   16.4796 N   0  0  0  0  0  0  0  0  0  0  0  0
    7.0644   -6.4612   15.7375 N   0  0  0  0  0  0  0  0  0  0  0  0
    5.3549   -9.6322   18.3190 C   0  0  0  0  0  0  0  0  0  0  0  0
   10.3704   -4.9638   18.6510 C   0  0  0  0  0  0  0  0  0  0  0  0
    5.5935   -8.6419   17.4234 C   0  0  0  0  0  0  0  0  0  0  0  0
   13.0726   -4.6648   23.3394 O   0  0  0  0  0  0  0  0  0  0  0  0
    8.5955   -6.0705   17.3996 C   0  0  0  0  0  0  0  0  0  0  0  0
    4.6223   -8.3832   16.5030 C   0  0  0  0  0  0  0  0  0  0  0  0
   12.4690   -5.2624   19.9024 C   0  0  0  0  0  0  0  0  0  0  0  0
    3.2548   -9.9919   17.4189 C   0  0  0  0  0  0  0  0  0  0  0  0
   12.4767   -4.7393   22.1790 C   0  0  0  0  0  0  0  0  0  0  0  0
    7.8593   -5.3772   15.3569 N   0  0  0  0  0  0  0  0  0  0  0  0
    7.4412   -6.9038   16.9283 C   0  0  0  0  0  0  0  0  0  0  0  0
  1 21  4  0
  1 23  4  0
  2  5  1  0
  2 13  4  0
  2 16  4  0
  3  6  4  0
  3  7  4  0
  4 13  4  0
  4 19  4  0
  4 24  4  0
  6 23  4  0
  7 16  1  0
  7 21  4  0
  8 18  1  0
  9 20  4  0
  9 22  4  0
 10 17  1  0
 10 25  1  0
 11 16  4  0
 11 19  4  0
 12 15  4  0
 12 22  4  0
 14 24  4  0
 14 25  4  0
 15 17  4  0
 17 20  4  0
 18 23  1  0
 19 25  4  0
M  END
$$$$

 Created by Python create_sdf_string function

 25 28  0  0  0  0  0  0  0  0999 V2000
   13.1533   -5.2399   21.0682 C   0  0  0  0  0  0  0  0  0  0  0  0
   10.4729   -4.0295   17.6135 C   0  0  0  0  0  0  0  0  0  0  0  0
   10.4789   -4.3641   20.9564 C   0  0  0  0  0  0  0  0  0  0  0  0
    8.7421   -5.1412   16.3650 C   0  0  0  0  0  0  0  0  0  0  0  0
   11.4353   -2.9204   17.8044 C   0  0  0  0  0  0  0  0  0  0  0  0
   11.1529   -4.3028   22.1277 C   0  0  0  0  0  0  0  0  0  0  0  0
   11.1290   -4.8502   19.8052 C   0  0  0  0  0  0  0  0  0  0  0  0
   12.4329   -4.2159   24.4224 C   0  0  0  0  0  0  0  0  0  0  0  0
    3.4740   -9.0387   16.5022 C   0  0  0  0  0  0  0  0  0  0  0  0
    6.8384   -7.9290   17.5282 N   0  0  0  0  0  0  0  0  0  0  0  0
    9.4126   -5.9853   18.4899 C   0  0  0  0  0  0  0  0  0  0  0  0
    4.2064  -10.3242   18.3302 C   0  0  0  0  0  0  0  0  0  0  0  0
    9.6599   -4.1551   16.4796 N   0  0  0  0  0  0  0  0  0  0  0  0
    7.0644   -6.4612   15.7375 N   0  0  0  0  0  0  0  0  0  0  0  0
    5.3549   -9.6322   18.3190 C   0  0  0  0  0  0  0  0  0  0  0  0
   10.3704   -4.9638   18.6510 C   0  0  0  0  0  0  0  0  0  0  0  0
    5.5935   -8.6419   17.4234 C   0  0  0  0  0  0  0  0  0  0  0  0
   13.0726   -4.6648   23.3394 O   0  0  0  0  0  0  0  0  0  0  0  0
    8.5955   -6.0705   17.3996 C   0  0  0  0  0  0  0  0  0  0  0  0
    4.6223   -8.3832   16.5030 C   0  0  0  0  0  0  0  0  0  0  0  0
   12.4690   -5.2624   19.9024 C   0  0  0  0  0  0  0  0  0  0  0  0
    3.2548   -9.9919   17.4189 C   0  0  0  0  0  0  0  0  0  0  0  0
   12.4767   -4.7393   22.1790 C   0  0  0  0  0  0  0  0  0  0  0  0
    7.8593   -5.3772   15.3569 N   0  0  0  0  0  0  0  0  0  0  0  0
    7.4412   -6.9038   16.9283 C   0  0  0  0  0  0  0  0  0  0  0  0
  1 21  4  0
  1 23  4  0
  2  5  1  0
  2 13  4  0
  2 16  4  0
  3  6  4  0
  3  7  4  0
  4 13  4  0
  4 19  4  0
  4 24  4  0
  6 23  4  0
  7 16  1  0
  7 21  4  0
  8 18  1  0
  9 20  4  0
  9 22  4  0
 10 17  1  0
 10 25  1  0
 11 16  4  0
 11 19  4  0
 12 15  4  0
 12 22  4  0
 14 24  4  0
 14 25  4  0
 15 17  4  0
 17 20  4  0
 18 23  1  0
 19 25  4  0
M  END
$$$$

 Created by Python create_sdf_string function

 25 28  0  0  0  0  0  0  0  0999 V2000
   13.1533   -5.2399   21.0682 C   0  0  0  0  0  0  0  0  0  0  0  0
   10.4729   -4.0295   17.6135 C   0  0  0  0  0  0  0  0  0  0  0  0
   10.4789   -4.3641   20.9564 C   0  0  0  0  0  0  0  0  0  0  0  0
    8.7421   -5.1412   16.3650 C   0  0  0  0  0  0  0  0  0  0  0  0
   11.4353   -2.9204   17.8044 C   0  0  0  0  0  0  0  0  0  0  0  0
   11.1529   -4.3028   22.1277 C   0  0  0  0  0  0  0  0  0  0  0  0
   11.1290   -4.8502   19.8052 C   0  0  0  0  0  0  0  0  0  0  0  0
   12.4329   -4.2159   24.4224 C   0  0  0  0  0  0  0  0  0  0  0  0
    3.4740   -9.0387   16.5022 C   0  0  0  0  0  0  0  0  0  0  0  0
    6.8384   -7.9290   17.5282 N   0  0  0  0  0  0  0  0  0  0  0  0
    9.4126   -5.9853   18.4899 C   0  0  0  0  0  0  0  0  0  0  0  0
    4.2064  -10.3242   18.3302 C   0  0  0  0  0  0  0  0  0  0  0  0
    9.6599   -4.1551   16.4796 N   0  0  0  0  0  0  0  0  0  0  0  0
    7.0644   -6.4612   15.7375 N   0  0  0  0  0  0  0  0  0  0  0  0
    5.3549   -9.6322   18.3190 C   0  0  0  0  0  0  0  0  0  0  0  0
   10.3704   -4.9638   18.6510 C   0  0  0  0  0  0  0  0  0  0  0  0
    5.5935   -8.6419   17.4234 C   0  0  0  0  0  0  0  0  0  0  0  0
   13.0726   -4.6648   23.3394 O   0  0  0  0  0  0  0  0  0  0  0  0
    8.5955   -6.0705   17.3996 C   0  0  0  0  0  0  0  0  0  0  0  0
    4.6223   -8.3832   16.5030 C   0  0  0  0  0  0  0  0  0  0  0  0
   12.4690   -5.2624   19.9024 C   0  0  0  0  0  0  0  0  0  0  0  0
    3.2548   -9.9919   17.4189 C   0  0  0  0  0  0  0  0  0  0  0  0
   12.4767   -4.7393   22.1790 C   0  0  0  0  0  0  0  0  0  0  0  0
    7.8593   -5.3772   15.3569 N   0  0  0  0  0  0  0  0  0  0  0  0
    7.4412   -6.9038   16.9283 C   0  0  0  0  0  0  0  0  0  0  0  0
  1 21  4  0
  1 23  4  0
  2  5  1  0
  2 13  4  0
  2 16  4  0
  3  6  4  0
  3  7  4  0
  4 13  4  0
  4 19  4  0
  4 24  4  0
  6 23  4  0
  7 16  1  0
  7 21  4  0
  8 18  1  0
  9 20  4  0
  9 22  4  0
 10 17  1  0
 10 25  1  0
 11 16  4  0
 11 19  4  0
 12 15  4  0
 12 22  4  0
 14 24  4  0
 14 25  4  0
 15 17  4  0
 17 20  4  0
 18 23  1  0
 19 25  4  0
M  END
$$$$

 Created by Python create_sdf_string function

 25 28  0  0  0  0  0  0  0  0999 V2000
   13.1533   -5.2399   21.0682 C   0  0  0  0  0  0  0  0  0  0  0  0
   10.4729   -4.0295   17.6135 C   0  0  0  0  0  0  0  0  0  0  0  0
   10.4789   -4.3641   20.9564 C   0  0  0  0  0  0  0  0  0  0  0  0
    8.7421   -5.1412   16.3650 C   0  0  0  0  0  0  0  0  0  0  0  0
   11.4353   -2.9204   17.8044 C   0  0  0  0  0  0  0  0  0  0  0  0
   11.1529   -4.3028   22.1277 C   0  0  0  0  0  0  0  0  0  0  0  0
   11.1290   -4.8502   19.8052 C   0  0  0  0  0  0  0  0  0  0  0  0
   12.4329   -4.2159   24.4224 C   0  0  0  0  0  0  0  0  0  0  0  0
    3.4740   -9.0387   16.5022 C   0  0  0  0  0  0  0  0  0  0  0  0
    6.8384   -7.9290   17.5282 N   0  0  0  0  0  0  0  0  0  0  0  0
    9.4126   -5.9853   18.4899 C   0  0  0  0  0  0  0  0  0  0  0  0
    4.2064  -10.3242   18.3302 C   0  0  0  0  0  0  0  0  0  0  0  0
    9.6599   -4.1551   16.4796 N   0  0  0  0  0  0  0  0  0  0  0  0
    7.0644   -6.4612   15.7375 N   0  0  0  0  0  0  0  0  0  0  0  0
    5.3549   -9.6322   18.3190 C   0  0  0  0  0  0  0  0  0  0  0  0
   10.3704   -4.9638   18.6510 C   0  0  0  0  0  0  0  0  0  0  0  0
    5.5935   -8.6419   17.4234 C   0  0  0  0  0  0  0  0  0  0  0  0
   13.0726   -4.6648   23.3394 O   0  0  0  0  0  0  0  0  0  0  0  0
    8.5955   -6.0705   17.3996 C   0  0  0  0  0  0  0  0  0  0  0  0
    4.6223   -8.3832   16.5030 C   0  0  0  0  0  0  0  0  0  0  0  0
   12.4690   -5.2624   19.9024 C   0  0  0  0  0  0  0  0  0  0  0  0
    3.2548   -9.9919   17.4189 C   0  0  0  0  0  0  0  0  0  0  0  0
   12.4767   -4.7393   22.1790 C   0  0  0  0  0  0  0  0  0  0  0  0
    7.8593   -5.3772   15.3569 N   0  0  0  0  0  0  0  0  0  0  0  0
    7.4412   -6.9038   16.9283 C   0  0  0  0  0  0  0  0  0  0  0  0
  1 21  4  0
  1 23  4  0
  2  5  1  0
  2 13  4  0
  2 16  4  0
  3  6  4  0
  3  7  4  0
  4 13  4  0
  4 19  4  0
  4 24  4  0
  6 23  4  0
  7 16  1  0
  7 21  4  0
  8 18  1  0
  9 20  4  0
  9 22  4  0
 10 17  1  0
 10 25  1  0
 11 16  4  0
 11 19  4  0
 12 15  4  0
 12 22  4  0
 14 24  4  0
 14 25  4  0
 15 17  4  0
 17 20  4  0
 18 23  1  0
 19 25  4  0
M  END
$$$$

 Created by Python create_sdf_string function

 25 28  0  0  0  0  0  0  0  0999 V2000
   13.1533   -5.2399   21.0682 C   0  0  0  0  0  0  0  0  0  0  0  0
   10.4729   -4.0295   17.6135 C   0  0  0  0  0  0  0  0  0  0  0  0
   10.4789   -4.3641   20.9564 C   0  0  0  0  0  0  0  0  0  0  0  0
    8.7421   -5.1412   16.3650 C   0  0  0  0  0  0  0  0  0  0  0  0
   11.4353   -2.9204   17.8044 C   0  0  0  0  0  0  0  0  0  0  0  0
   11.1529   -4.3028   22.1277 C   0  0  0  0  0  0  0  0  0  0  0  0
   11.1290   -4.8502   19.8052 C   0  0  0  0  0  0  0  0  0  0  0  0
   12.4329   -4.2159   24.4224 C   0  0  0  0  0  0  0  0  0  0  0  0
    3.4740   -9.0387   16.5022 C   0  0  0  0  0  0  0  0  0  0  0  0
    6.8384   -7.9290   17.5282 N   0  0  0  0  0  0  0  0  0  0  0  0
    9.4126   -5.9853   18.4899 C   0  0  0  0  0  0  0  0  0  0  0  0
    4.2064  -10.3242   18.3302 C   0  0  0  0  0  0  0  0  0  0  0  0
    9.6599   -4.1551   16.4796 N   0  0  0  0  0  0  0  0  0  0  0  0
    7.0644   -6.4612   15.7375 N   0  0  0  0  0  0  0  0  0  0  0  0
    5.3549   -9.6322   18.3190 C   0  0  0  0  0  0  0  0  0  0  0  0
   10.3704   -4.9638   18.6510 C   0  0  0  0  0  0  0  0  0  0  0  0
    5.5935   -8.6419   17.4234 C   0  0  0  0  0  0  0  0  0  0  0  0
   13.0726   -4.6648   23.3394 O   0  0  0  0  0  0  0  0  0  0  0  0
    8.5955   -6.0705   17.3996 C   0  0  0  0  0  0  0  0  0  0  0  0
    4.6223   -8.3832   16.5030 C   0  0  0  0  0  0  0  0  0  0  0  0
   12.4690   -5.2624   19.9024 C   0  0  0  0  0  0  0  0  0  0  0  0
    3.2548   -9.9919   17.4189 C   0  0  0  0  0  0  0  0  0  0  0  0
   12.4767   -4.7393   22.1790 C   0  0  0  0  0  0  0  0  0  0  0  0
    7.8593   -5.3772   15.3569 N   0  0  0  0  0  0  0  0  0  0  0  0
    7.4412   -6.9038   16.9283 C   0  0  0  0  0  0  0  0  0  0  0  0
  1 21  4  0
  1 23  4  0
  2  5  1  0
  2 13  4  0
  2 16  4  0
  3  6  4  0
  3  7  4  0
  4 13  4  0
  4 19  4  0
  4 24  4  0
  6 23  4  0
  7 16  1  0
  7 21  4  0
  8 18  1  0
  9 20  4  0
  9 22  4  0
 10 17  1  0
 10 25  1  0
 11 16  4  0
 11 19  4  0
 12 15  4  0
 12 22  4  0
 14 24  4  0
 14 25  4  0
 15 17  4  0
 17 20  4  0
 18 23  1  0
 19 25  4  0
M  END
$$$$

 Created by Python create_sdf_string function

 25 28  0  0  0  0  0  0  0  0999 V2000
   13.1533   -5.2399   21.0682 C   0  0  0  0  0  0  0  0  0  0  0  0
   10.4729   -4.0295   17.6135 C   0  0  0  0  0  0  0  0  0  0  0  0
   10.4789   -4.3641   20.9564 C   0  0  0  0  0  0  0  0  0  0  0  0
    8.7421   -5.1412   16.3650 C   0  0  0  0  0  0  0  0  0  0  0  0
   11.4353   -2.9204   17.8044 C   0  0  0  0  0  0  0  0  0  0  0  0
   11.1529   -4.3028   22.1277 C   0  0  0  0  0  0  0  0  0  0  0  0
   11.1290   -4.8502   19.8052 C   0  0  0  0  0  0  0  0  0  0  0  0
   12.4329   -4.2159   24.4224 C   0  0  0  0  0  0  0  0  0  0  0  0
    3.4740   -9.0387   16.5022 C   0  0  0  0  0  0  0  0  0  0  0  0
    6.8384   -7.9290   17.5282 N   0  0  0  0  0  0  0  0  0  0  0  0
    9.4126   -5.9853   18.4899 C   0  0  0  0  0  0  0  0  0  0  0  0
    4.2064  -10.3242   18.3302 C   0  0  0  0  0  0  0  0  0  0  0  0
    9.6599   -4.1551   16.4796 N   0  0  0  0  0  0  0  0  0  0  0  0
    7.0644   -6.4612   15.7375 N   0  0  0  0  0  0  0  0  0  0  0  0
    5.3549   -9.6322   18.3190 C   0  0  0  0  0  0  0  0  0  0  0  0
   10.3704   -4.9638   18.6510 C   0  0  0  0  0  0  0  0  0  0  0  0
    5.5935   -8.6419   17.4234 C   0  0  0  0  0  0  0  0  0  0  0  0
   13.0726   -4.6648   23.3394 O   0  0  0  0  0  0  0  0  0  0  0  0
    8.5955   -6.0705   17.3996 C   0  0  0  0  0  0  0  0  0  0  0  0
    4.6223   -8.3832   16.5030 C   0  0  0  0  0  0  0  0  0  0  0  0
   12.4690   -5.2624   19.9024 C   0  0  0  0  0  0  0  0  0  0  0  0
    3.2548   -9.9919   17.4189 C   0  0  0  0  0  0  0  0  0  0  0  0
   12.4767   -4.7393   22.1790 C   0  0  0  0  0  0  0  0  0  0  0  0
    7.8593   -5.3772   15.3569 N   0  0  0  0  0  0  0  0  0  0  0  0
    7.4412   -6.9038   16.9283 C   0  0  0  0  0  0  0  0  0  0  0  0
  1 21  4  0
  1 23  4  0
  2  5  1  0
  2 13  4  0
  2 16  4  0
  3  6  4  0
  3  7  4  0
  4 13  4  0
  4 19  4  0
  4 24  4  0
  6 23  4  0
  7 16  1  0
  7 21  4  0
  8 18  1  0
  9 20  4  0
  9 22  4  0
 10 17  1  0
 10 25  1  0
 11 16  4  0
 11 19  4  0
 12 15  4  0
 12 22  4  0
 14 24  4  0
 14 25  4  0
 15 17  4  0
 17 20  4  0
 18 23  1  0
 19 25  4  0
M  END
$$$$

 Created by Python create_sdf_string function

 25 28  0  0  0  0  0  0  0  0999 V2000
   13.1533   -5.2399   21.0682 C   0  0  0  0  0  0  0  0  0  0  0  0
   10.4729   -4.0295   17.6135 C   0  0  0  0  0  0  0  0  0  0  0  0
   10.4789   -4.3641   20.9564 C   0  0  0  0  0  0  0  0  0  0  0  0
    8.7421   -5.1412   16.3650 C   0  0  0  0  0  0  0  0  0  0  0  0
   11.4353   -2.9204   17.8044 C   0  0  0  0  0  0  0  0  0  0  0  0
   11.1529   -4.3028   22.1277 C   0  0  0  0  0  0  0  0  0  0  0  0
   11.1290   -4.8502   19.8052 C   0  0  0  0  0  0  0  0  0  0  0  0
   12.4329   -4.2159   24.4224 C   0  0  0  0  0  0  0  0  0  0  0  0
    3.4740   -9.0387   16.5022 C   0  0  0  0  0  0  0  0  0  0  0  0
    6.8384   -7.9290   17.5282 N   0  0  0  0  0  0  0  0  0  0  0  0
    9.4126   -5.9853   18.4899 C   0  0  0  0  0  0  0  0  0  0  0  0
    4.2064  -10.3242   18.3302 C   0  0  0  0  0  0  0  0  0  0  0  0
    9.6599   -4.1551   16.4796 N   0  0  0  0  0  0  0  0  0  0  0  0
    7.0644   -6.4612   15.7375 N   0  0  0  0  0  0  0  0  0  0  0  0
    5.3549   -9.6322   18.3190 C   0  0  0  0  0  0  0  0  0  0  0  0
   10.3704   -4.9638   18.6510 C   0  0  0  0  0  0  0  0  0  0  0  0
    5.5935   -8.6419   17.4234 C   0  0  0  0  0  0  0  0  0  0  0  0
   13.0726   -4.6648   23.3394 O   0  0  0  0  0  0  0  0  0  0  0  0
    8.5955   -6.0705   17.3996 C   0  0  0  0  0  0  0  0  0  0  0  0
    4.6223   -8.3832   16.5030 C   0  0  0  0  0  0  0  0  0  0  0  0
   12.4690   -5.2624   19.9024 C   0  0  0  0  0  0  0  0  0  0  0  0
    3.2548   -9.9919   17.4189 C   0  0  0  0  0  0  0  0  0  0  0  0
   12.4767   -4.7393   22.1790 C   0  0  0  0  0  0  0  0  0  0  0  0
    7.8593   -5.3772   15.3569 N   0  0  0  0  0  0  0  0  0  0  0  0
    7.4412   -6.9038   16.9283 C   0  0  0  0  0  0  0  0  0  0  0  0
  1 21  4  0
  1 23  4  0
  2  5  1  0
  2 13  4  0
  2 16  4  0
  3  6  4  0
  3  7  4  0
  4 13  4  0
  4 19  4  0
  4 24  4  0
  6 23  4  0
  7 16  1  0
  7 21  4  0
  8 18  1  0
  9 20  4  0
  9 22  4  0
 10 17  1  0
 10 25  1  0
 11 16  4  0
 11 19  4  0
 12 15  4  0
 12 22  4  0
 14 24  4  0
 14 25  4  0
 15 17  4  0
 17 20  4  0
 18 23  1  0
 19 25  4  0
M  END
$$$$

 Created by Python create_sdf_string function

 25 28  0  0  0  0  0  0  0  0999 V2000
   13.1533   -5.2399   21.0682 C   0  0  0  0  0  0  0  0  0  0  0  0
   10.4729   -4.0295   17.6135 C   0  0  0  0  0  0  0  0  0  0  0  0
   10.4789   -4.3641   20.9564 C   0  0  0  0  0  0  0  0  0  0  0  0
    8.7421   -5.1412   16.3650 C   0  0  0  0  0  0  0  0  0  0  0  0
   11.4353   -2.9204   17.8044 C   0  0  0  0  0  0  0  0  0  0  0  0
   11.1529   -4.3028   22.1277 C   0  0  0  0  0  0  0  0  0  0  0  0
   11.1290   -4.8502   19.8052 C   0  0  0  0  0  0  0  0  0  0  0  0
   12.4329   -4.2159   24.4224 C   0  0  0  0  0  0  0  0  0  0  0  0
    3.4740   -9.0387   16.5022 C   0  0  0  0  0  0  0  0  0  0  0  0
    6.8384   -7.9290   17.5282 N   0  0  0  0  0  0  0  0  0  0  0  0
    9.4126   -5.9853   18.4899 C   0  0  0  0  0  0  0  0  0  0  0  0
    4.2064  -10.3242   18.3302 C   0  0  0  0  0  0  0  0  0  0  0  0
    9.6599   -4.1551   16.4796 N   0  0  0  0  0  0  0  0  0  0  0  0
    7.0644   -6.4612   15.7375 N   0  0  0  0  0  0  0  0  0  0  0  0
    5.3549   -9.6322   18.3190 C   0  0  0  0  0  0  0  0  0  0  0  0
   10.3704   -4.9638   18.6510 C   0  0  0  0  0  0  0  0  0  0  0  0
    5.5935   -8.6419   17.4234 C   0  0  0  0  0  0  0  0  0  0  0  0
   13.0726   -4.6648   23.3394 O   0  0  0  0  0  0  0  0  0  0  0  0
    8.5955   -6.0705   17.3996 C   0  0  0  0  0  0  0  0  0  0  0  0
    4.6223   -8.3832   16.5030 C   0  0  0  0  0  0  0  0  0  0  0  0
   12.4690   -5.2624   19.9024 C   0  0  0  0  0  0  0  0  0  0  0  0
    3.2548   -9.9919   17.4189 C   0  0  0  0  0  0  0  0  0  0  0  0
   12.4767   -4.7393   22.1790 C   0  0  0  0  0  0  0  0  0  0  0  0
    7.8593   -5.3772   15.3569 N   0  0  0  0  0  0  0  0  0  0  0  0
    7.4412   -6.9038   16.9283 C   0  0  0  0  0  0  0  0  0  0  0  0
  1 21  4  0
  1 23  4  0
  2  5  1  0
  2 13  4  0
  2 16  4  0
  3  6  4  0
  3  7  4  0
  4 13  4  0
  4 19  4  0
  4 24  4  0
  6 23  4  0
  7 16  1  0
  7 21  4  0
  8 18  1  0
  9 20  4  0
  9 22  4  0
 10 17  1  0
 10 25  1  0
 11 16  4  0
 11 19  4  0
 12 15  4  0
 12 22  4  0
 14 24  4  0
 14 25  4  0
 15 17  4  0
 17 20  4  0
 18 23  1  0
 19 25  4  0
M  END
$$$$

 Created by Python create_sdf_string function

 25 28  0  0  0  0  0  0  0  0999 V2000
   13.1533   -5.2399   21.0682 C   0  0  0  0  0  0  0  0  0  0  0  0
   10.4729   -4.0295   17.6135 C   0  0  0  0  0  0  0  0  0  0  0  0
   10.4789   -4.3641   20.9564 C   0  0  0  0  0  0  0  0  0  0  0  0
    8.7421   -5.1412   16.3650 C   0  0  0  0  0  0  0  0  0  0  0  0
   11.4353   -2.9204   17.8044 C   0  0  0  0  0  0  0  0  0  0  0  0
   11.1529   -4.3028   22.1277 C   0  0  0  0  0  0  0  0  0  0  0  0
   11.1290   -4.8502   19.8052 C   0  0  0  0  0  0  0  0  0  0  0  0
   12.4329   -4.2159   24.4224 C   0  0  0  0  0  0  0  0  0  0  0  0
    3.4740   -9.0387   16.5022 C   0  0  0  0  0  0  0  0  0  0  0  0
    6.8384   -7.9290   17.5282 N   0  0  0  0  0  0  0  0  0  0  0  0
    9.4126   -5.9853   18.4899 C   0  0  0  0  0  0  0  0  0  0  0  0
    4.2064  -10.3242   18.3302 C   0  0  0  0  0  0  0  0  0  0  0  0
    9.6599   -4.1551   16.4796 N   0  0  0  0  0  0  0  0  0  0  0  0
    7.0644   -6.4612   15.7375 N   0  0  0  0  0  0  0  0  0  0  0  0
    5.3549   -9.6322   18.3190 C   0  0  0  0  0  0  0  0  0  0  0  0
   10.3704   -4.9638   18.6510 C   0  0  0  0  0  0  0  0  0  0  0  0
    5.5935   -8.6419   17.4234 C   0  0  0  0  0  0  0  0  0  0  0  0
   13.0726   -4.6648   23.3394 O   0  0  0  0  0  0  0  0  0  0  0  0
    8.5955   -6.0705   17.3996 C   0  0  0  0  0  0  0  0  0  0  0  0
    4.6223   -8.3832   16.5030 C   0  0  0  0  0  0  0  0  0  0  0  0
   12.4690   -5.2624   19.9024 C   0  0  0  0  0  0  0  0  0  0  0  0
    3.2548   -9.9919   17.4189 C   0  0  0  0  0  0  0  0  0  0  0  0
   12.4767   -4.7393   22.1790 C   0  0  0  0  0  0  0  0  0  0  0  0
    7.8593   -5.3772   15.3569 N   0  0  0  0  0  0  0  0  0  0  0  0
    7.4412   -6.9038   16.9283 C   0  0  0  0  0  0  0  0  0  0  0  0
  1 21  4  0
  1 23  4  0
  2  5  1  0
  2 13  4  0
  2 16  4  0
  3  6  4  0
  3  7  4  0
  4 13  4  0
  4 19  4  0
  4 24  4  0
  6 23  4  0
  7 16  1  0
  7 21  4  0
  8 18  1  0
  9 20  4  0
  9 22  4  0
 10 17  1  0
 10 25  1  0
 11 16  4  0
 11 19  4  0
 12 15  4  0
 12 22  4  0
 14 24  4  0
 14 25  4  0
 15 17  4  0
 17 20  4  0
 18 23  1  0
 19 25  4  0
M  END
$$$$

 Created by Python create_sdf_string function

 25 28  0  0  0  0  0  0  0  0999 V2000
   13.1533   -5.2399   21.0682 C   0  0  0  0  0  0  0  0  0  0  0  0
   10.4729   -4.0295   17.6135 C   0  0  0  0  0  0  0  0  0  0  0  0
   10.4789   -4.3641   20.9564 C   0  0  0  0  0  0  0  0  0  0  0  0
    8.7421   -5.1412   16.3650 C   0  0  0  0  0  0  0  0  0  0  0  0
   11.4353   -2.9204   17.8044 C   0  0  0  0  0  0  0  0  0  0  0  0
   11.1529   -4.3028   22.1277 C   0  0  0  0  0  0  0  0  0  0  0  0
   11.1290   -4.8502   19.8052 C   0  0  0  0  0  0  0  0  0  0  0  0
   12.4329   -4.2159   24.4224 C   0  0  0  0  0  0  0  0  0  0  0  0
    3.4740   -9.0387   16.5022 C   0  0  0  0  0  0  0  0  0  0  0  0
    6.8384   -7.9290   17.5282 N   0  0  0  0  0  0  0  0  0  0  0  0
    9.4126   -5.9853   18.4899 C   0  0  0  0  0  0  0  0  0  0  0  0
    4.2064  -10.3242   18.3302 C   0  0  0  0  0  0  0  0  0  0  0  0
    9.6599   -4.1551   16.4796 N   0  0  0  0  0  0  0  0  0  0  0  0
    7.0644   -6.4612   15.7375 N   0  0  0  0  0  0  0  0  0  0  0  0
    5.3549   -9.6322   18.3190 C   0  0  0  0  0  0  0  0  0  0  0  0
   10.3704   -4.9638   18.6510 C   0  0  0  0  0  0  0  0  0  0  0  0
    5.5935   -8.6419   17.4234 C   0  0  0  0  0  0  0  0  0  0  0  0
   13.0726   -4.6648   23.3394 O   0  0  0  0  0  0  0  0  0  0  0  0
    8.5955   -6.0705   17.3996 C   0  0  0  0  0  0  0  0  0  0  0  0
    4.6223   -8.3832   16.5030 C   0  0  0  0  0  0  0  0  0  0  0  0
   12.4690   -5.2624   19.9024 C   0  0  0  0  0  0  0  0  0  0  0  0
    3.2548   -9.9919   17.4189 C   0  0  0  0  0  0  0  0  0  0  0  0
   12.4767   -4.7393   22.1790 C   0  0  0  0  0  0  0  0  0  0  0  0
    7.8593   -5.3772   15.3569 N   0  0  0  0  0  0  0  0  0  0  0  0
    7.4412   -6.9038   16.9283 C   0  0  0  0  0  0  0  0  0  0  0  0
  1 21  4  0
  1 23  4  0
  2  5  1  0
  2 13  4  0
  2 16  4  0
  3  6  4  0
  3  7  4  0
  4 13  4  0
  4 19  4  0
  4 24  4  0
  6 23  4  0
  7 16  1  0
  7 21  4  0
  8 18  1  0
  9 20  4  0
  9 22  4  0
 10 17  1  0
 10 25  1  0
 11 16  4  0
 11 19  4  0
 12 15  4  0
 12 22  4  0
 14 24  4  0
 14 25  4  0
 15 17  4  0
 17 20  4  0
 18 23  1  0
 19 25  4  0
M  END
$$$$

 Created by Python create_sdf_string function

 25 28  0  0  0  0  0  0  0  0999 V2000
   13.1533   -5.2399   21.0682 C   0  0  0  0  0  0  0  0  0  0  0  0
   10.4729   -4.0295   17.6135 C   0  0  0  0  0  0  0  0  0  0  0  0
   10.4789   -4.3641   20.9564 C   0  0  0  0  0  0  0  0  0  0  0  0
    8.7421   -5.1412   16.3650 C   0  0  0  0  0  0  0  0  0  0  0  0
   11.4353   -2.9204   17.8044 C   0  0  0  0  0  0  0  0  0  0  0  0
   11.1529   -4.3028   22.1277 C   0  0  0  0  0  0  0  0  0  0  0  0
   11.1290   -4.8502   19.8052 C   0  0  0  0  0  0  0  0  0  0  0  0
   12.4329   -4.2159   24.4224 C   0  0  0  0  0  0  0  0  0  0  0  0
    3.4740   -9.0387   16.5022 C   0  0  0  0  0  0  0  0  0  0  0  0
    6.8384   -7.9290   17.5282 N   0  0  0  0  0  0  0  0  0  0  0  0
    9.4126   -5.9853   18.4899 C   0  0  0  0  0  0  0  0  0  0  0  0
    4.2064  -10.3242   18.3302 C   0  0  0  0  0  0  0  0  0  0  0  0
    9.6599   -4.1551   16.4796 N   0  0  0  0  0  0  0  0  0  0  0  0
    7.0644   -6.4612   15.7375 N   0  0  0  0  0  0  0  0  0  0  0  0
    5.3549   -9.6322   18.3190 C   0  0  0  0  0  0  0  0  0  0  0  0
   10.3704   -4.9638   18.6510 C   0  0  0  0  0  0  0  0  0  0  0  0
    5.5935   -8.6419   17.4234 C   0  0  0  0  0  0  0  0  0  0  0  0
   13.0726   -4.6648   23.3394 O   0  0  0  0  0  0  0  0  0  0  0  0
    8.5955   -6.0705   17.3996 C   0  0  0  0  0  0  0  0  0  0  0  0
    4.6223   -8.3832   16.5030 C   0  0  0  0  0  0  0  0  0  0  0  0
   12.4690   -5.2624   19.9024 C   0  0  0  0  0  0  0  0  0  0  0  0
    3.2548   -9.9919   17.4189 C   0  0  0  0  0  0  0  0  0  0  0  0
   12.4767   -4.7393   22.1790 C   0  0  0  0  0  0  0  0  0  0  0  0
    7.8593   -5.3772   15.3569 N   0  0  0  0  0  0  0  0  0  0  0  0
    7.4412   -6.9038   16.9283 C   0  0  0  0  0  0  0  0  0  0  0  0
  1 21  4  0
  1 23  4  0
  2  5  1  0
  2 13  4  0
  2 16  4  0
  3  6  4  0
  3  7  4  0
  4 13  4  0
  4 19  4  0
  4 24  4  0
  6 23  4  0
  7 16  1  0
  7 21  4  0
  8 18  1  0
  9 20  4  0
  9 22  4  0
 10 17  1  0
 10 25  1  0
 11 16  4  0
 11 19  4  0
 12 15  4  0
 12 22  4  0
 14 24  4  0
 14 25  4  0
 15 17  4  0
 17 20  4  0
 18 23  1  0
 19 25  4  0
M  END
$$$$

 Created by Python create_sdf_string function

 25 28  0  0  0  0  0  0  0  0999 V2000
   13.1533   -5.2399   21.0682 C   0  0  0  0  0  0  0  0  0  0  0  0
   10.4729   -4.0295   17.6135 C   0  0  0  0  0  0  0  0  0  0  0  0
   10.4789   -4.3641   20.9564 C   0  0  0  0  0  0  0  0  0  0  0  0
    8.7421   -5.1412   16.3650 C   0  0  0  0  0  0  0  0  0  0  0  0
   11.4353   -2.9204   17.8044 C   0  0  0  0  0  0  0  0  0  0  0  0
   11.1529   -4.3028   22.1277 C   0  0  0  0  0  0  0  0  0  0  0  0
   11.1290   -4.8502   19.8052 C   0  0  0  0  0  0  0  0  0  0  0  0
   12.4329   -4.2159   24.4224 C   0  0  0  0  0  0  0  0  0  0  0  0
    3.4740   -9.0387   16.5022 C   0  0  0  0  0  0  0  0  0  0  0  0
    6.8384   -7.9290   17.5282 N   0  0  0  0  0  0  0  0  0  0  0  0
    9.4126   -5.9853   18.4899 C   0  0  0  0  0  0  0  0  0  0  0  0
    4.2064  -10.3242   18.3302 C   0  0  0  0  0  0  0  0  0  0  0  0
    9.6599   -4.1551   16.4796 N   0  0  0  0  0  0  0  0  0  0  0  0
    7.0644   -6.4612   15.7375 N   0  0  0  0  0  0  0  0  0  0  0  0
    5.3549   -9.6322   18.3190 C   0  0  0  0  0  0  0  0  0  0  0  0
   10.3704   -4.9638   18.6510 C   0  0  0  0  0  0  0  0  0  0  0  0
    5.5935   -8.6419   17.4234 C   0  0  0  0  0  0  0  0  0  0  0  0
   13.0726   -4.6648   23.3394 O   0  0  0  0  0  0  0  0  0  0  0  0
    8.5955   -6.0705   17.3996 C   0  0  0  0  0  0  0  0  0  0  0  0
    4.6223   -8.3832   16.5030 C   0  0  0  0  0  0  0  0  0  0  0  0
   12.4690   -5.2624   19.9024 C   0  0  0  0  0  0  0  0  0  0  0  0
    3.2548   -9.9919   17.4189 C   0  0  0  0  0  0  0  0  0  0  0  0
   12.4767   -4.7393   22.1790 C   0  0  0  0  0  0  0  0  0  0  0  0
    7.8593   -5.3772   15.3569 N   0  0  0  0  0  0  0  0  0  0  0  0
    7.4412   -6.9038   16.9283 C   0  0  0  0  0  0  0  0  0  0  0  0
  1 21  4  0
  1 23  4  0
  2  5  1  0
  2 13  4  0
  2 16  4  0
  3  6  4  0
  3  7  4  0
  4 13  4  0
  4 19  4  0
  4 24  4  0
  6 23  4  0
  7 16  1  0
  7 21  4  0
  8 18  1  0
  9 20  4  0
  9 22  4  0
 10 17  1  0
 10 25  1  0
 11 16  4  0
 11 19  4  0
 12 15  4  0
 12 22  4  0
 14 24  4  0
 14 25  4  0
 15 17  4  0
 17 20  4  0
 18 23  1  0
 19 25  4  0
M  END
$$$$

 Created by Python create_sdf_string function

 25 28  0  0  0  0  0  0  0  0999 V2000
   13.1533   -5.2399   21.0682 C   0  0  0  0  0  0  0  0  0  0  0  0
   10.4729   -4.0295   17.6135 C   0  0  0  0  0  0  0  0  0  0  0  0
   10.4789   -4.3641   20.9564 C   0  0  0  0  0  0  0  0  0  0  0  0
    8.7421   -5.1412   16.3650 C   0  0  0  0  0  0  0  0  0  0  0  0
   11.4353   -2.9204   17.8044 C   0  0  0  0  0  0  0  0  0  0  0  0
   11.1529   -4.3028   22.1277 C   0  0  0  0  0  0  0  0  0  0  0  0
   11.1290   -4.8502   19.8052 C   0  0  0  0  0  0  0  0  0  0  0  0
   12.4329   -4.2159   24.4224 C   0  0  0  0  0  0  0  0  0  0  0  0
    3.4740   -9.0387   16.5022 C   0  0  0  0  0  0  0  0  0  0  0  0
    6.8384   -7.9290   17.5282 N   0  0  0  0  0  0  0  0  0  0  0  0
    9.4126   -5.9853   18.4899 C   0  0  0  0  0  0  0  0  0  0  0  0
    4.2064  -10.3242   18.3302 C   0  0  0  0  0  0  0  0  0  0  0  0
    9.6599   -4.1551   16.4796 N   0  0  0  0  0  0  0  0  0  0  0  0
    7.0644   -6.4612   15.7375 N   0  0  0  0  0  0  0  0  0  0  0  0
    5.3549   -9.6322   18.3190 C   0  0  0  0  0  0  0  0  0  0  0  0
   10.3704   -4.9638   18.6510 C   0  0  0  0  0  0  0  0  0  0  0  0
    5.5935   -8.6419   17.4234 C   0  0  0  0  0  0  0  0  0  0  0  0
   13.0726   -4.6648   23.3394 O   0  0  0  0  0  0  0  0  0  0  0  0
    8.5955   -6.0705   17.3996 C   0  0  0  0  0  0  0  0  0  0  0  0
    4.6223   -8.3832   16.5030 C   0  0  0  0  0  0  0  0  0  0  0  0
   12.4690   -5.2624   19.9024 C   0  0  0  0  0  0  0  0  0  0  0  0
    3.2548   -9.9919   17.4189 C   0  0  0  0  0  0  0  0  0  0  0  0
   12.4767   -4.7393   22.1790 C   0  0  0  0  0  0  0  0  0  0  0  0
    7.8593   -5.3772   15.3569 N   0  0  0  0  0  0  0  0  0  0  0  0
    7.4412   -6.9038   16.9283 C   0  0  0  0  0  0  0  0  0  0  0  0
  1 21  4  0
  1 23  4  0
  2  5  1  0
  2 13  4  0
  2 16  4  0
  3  6  4  0
  3  7  4  0
  4 13  4  0
  4 19  4  0
  4 24  4  0
  6 23  4  0
  7 16  1  0
  7 21  4  0
  8 18  1  0
  9 20  4  0
  9 22  4  0
 10 17  1  0
 10 25  1  0
 11 16  4  0
 11 19  4  0
 12 15  4  0
 12 22  4  0
 14 24  4  0
 14 25  4  0
 15 17  4  0
 17 20  4  0
 18 23  1  0
 19 25  4  0
M  END
$$$$

 Created by Python create_sdf_string function

 25 28  0  0  0  0  0  0  0  0999 V2000
   13.1533   -5.2399   21.0682 C   0  0  0  0  0  0  0  0  0  0  0  0
   10.4729   -4.0295   17.6135 C   0  0  0  0  0  0  0  0  0  0  0  0
   10.4789   -4.3641   20.9564 C   0  0  0  0  0  0  0  0  0  0  0  0
    8.7421   -5.1412   16.3650 C   0  0  0  0  0  0  0  0  0  0  0  0
   11.4353   -2.9204   17.8044 C   0  0  0  0  0  0  0  0  0  0  0  0
   11.1529   -4.3028   22.1277 C   0  0  0  0  0  0  0  0  0  0  0  0
   11.1290   -4.8502   19.8052 C   0  0  0  0  0  0  0  0  0  0  0  0
   12.4329   -4.2159   24.4224 C   0  0  0  0  0  0  0  0  0  0  0  0
    3.4740   -9.0387   16.5022 C   0  0  0  0  0  0  0  0  0  0  0  0
    6.8384   -7.9290   17.5282 N   0  0  0  0  0  0  0  0  0  0  0  0
    9.4126   -5.9853   18.4899 C   0  0  0  0  0  0  0  0  0  0  0  0
    4.2064  -10.3242   18.3302 C   0  0  0  0  0  0  0  0  0  0  0  0
    9.6599   -4.1551   16.4796 N   0  0  0  0  0  0  0  0  0  0  0  0
    7.0644   -6.4612   15.7375 N   0  0  0  0  0  0  0  0  0  0  0  0
    5.3549   -9.6322   18.3190 C   0  0  0  0  0  0  0  0  0  0  0  0
   10.3704   -4.9638   18.6510 C   0  0  0  0  0  0  0  0  0  0  0  0
    5.5935   -8.6419   17.4234 C   0  0  0  0  0  0  0  0  0  0  0  0
   13.0726   -4.6648   23.3394 O   0  0  0  0  0  0  0  0  0  0  0  0
    8.5955   -6.0705   17.3996 C   0  0  0  0  0  0  0  0  0  0  0  0
    4.6223   -8.3832   16.5030 C   0  0  0  0  0  0  0  0  0  0  0  0
   12.4690   -5.2624   19.9024 C   0  0  0  0  0  0  0  0  0  0  0  0
    3.2548   -9.9919   17.4189 C   0  0  0  0  0  0  0  0  0  0  0  0
   12.4767   -4.7393   22.1790 C   0  0  0  0  0  0  0  0  0  0  0  0
    7.8593   -5.3772   15.3569 N   0  0  0  0  0  0  0  0  0  0  0  0
    7.4412   -6.9038   16.9283 C   0  0  0  0  0  0  0  0  0  0  0  0
  1 21  4  0
  1 23  4  0
  2  5  1  0
  2 13  4  0
  2 16  4  0
  3  6  4  0
  3  7  4  0
  4 13  4  0
  4 19  4  0
  4 24  4  0
  6 23  4  0
  7 16  1  0
  7 21  4  0
  8 18  1  0
  9 20  4  0
  9 22  4  0
 10 17  1  0
 10 25  1  0
 11 16  4  0
 11 19  4  0
 12 15  4  0
 12 22  4  0
 14 24  4  0
 14 25  4  0
 15 17  4  0
 17 20  4  0
 18 23  1  0
 19 25  4  0
M  END
$$$$

 Created by Python create_sdf_string function

 25 28  0  0  0  0  0  0  0  0999 V2000
   13.1533   -5.2399   21.0682 C   0  0  0  0  0  0  0  0  0  0  0  0
   10.4729   -4.0295   17.6135 C   0  0  0  0  0  0  0  0  0  0  0  0
   10.4789   -4.3641   20.9564 C   0  0  0  0  0  0  0  0  0  0  0  0
    8.7421   -5.1412   16.3650 C   0  0  0  0  0  0  0  0  0  0  0  0
   11.4353   -2.9204   17.8044 C   0  0  0  0  0  0  0  0  0  0  0  0
   11.1529   -4.3028   22.1277 C   0  0  0  0  0  0  0  0  0  0  0  0
   11.1290   -4.8502   19.8052 C   0  0  0  0  0  0  0  0  0  0  0  0
   12.4329   -4.2159   24.4224 C   0  0  0  0  0  0  0  0  0  0  0  0
    3.4740   -9.0387   16.5022 C   0  0  0  0  0  0  0  0  0  0  0  0
    6.8384   -7.9290   17.5282 N   0  0  0  0  0  0  0  0  0  0  0  0
    9.4126   -5.9853   18.4899 C   0  0  0  0  0  0  0  0  0  0  0  0
    4.2064  -10.3242   18.3302 C   0  0  0  0  0  0  0  0  0  0  0  0
    9.6599   -4.1551   16.4796 N   0  0  0  0  0  0  0  0  0  0  0  0
    7.0644   -6.4612   15.7375 N   0  0  0  0  0  0  0  0  0  0  0  0
    5.3549   -9.6322   18.3190 C   0  0  0  0  0  0  0  0  0  0  0  0
   10.3704   -4.9638   18.6510 C   0  0  0  0  0  0  0  0  0  0  0  0
    5.5935   -8.6419   17.4234 C   0  0  0  0  0  0  0  0  0  0  0  0
   13.0726   -4.6648   23.3394 O   0  0  0  0  0  0  0  0  0  0  0  0
    8.5955   -6.0705   17.3996 C   0  0  0  0  0  0  0  0  0  0  0  0
    4.6223   -8.3832   16.5030 C   0  0  0  0  0  0  0  0  0  0  0  0
   12.4690   -5.2624   19.9024 C   0  0  0  0  0  0  0  0  0  0  0  0
    3.2548   -9.9919   17.4189 C   0  0  0  0  0  0  0  0  0  0  0  0
   12.4767   -4.7393   22.1790 C   0  0  0  0  0  0  0  0  0  0  0  0
    7.8593   -5.3772   15.3569 N   0  0  0  0  0  0  0  0  0  0  0  0
    7.4412   -6.9038   16.9283 C   0  0  0  0  0  0  0  0  0  0  0  0
  1 21  4  0
  1 23  4  0
  2  5  1  0
  2 13  4  0
  2 16  4  0
  3  6  4  0
  3  7  4  0
  4 13  4  0
  4 19  4  0
  4 24  4  0
  6 23  4  0
  7 16  1  0
  7 21  4  0
  8 18  1  0
  9 20  4  0
  9 22  4  0
 10 17  1  0
 10 25  1  0
 11 16  4  0
 11 19  4  0
 12 15  4  0
 12 22  4  0
 14 24  4  0
 14 25  4  0
 15 17  4  0
 17 20  4  0
 18 23  1  0
 19 25  4  0
M  END
$$$$

 Created by Python create_sdf_string function

 25 28  0  0  0  0  0  0  0  0999 V2000
   13.1533   -5.2399   21.0682 C   0  0  0  0  0  0  0  0  0  0  0  0
   10.4729   -4.0295   17.6135 C   0  0  0  0  0  0  0  0  0  0  0  0
   10.4789   -4.3641   20.9564 C   0  0  0  0  0  0  0  0  0  0  0  0
    8.7421   -5.1412   16.3650 C   0  0  0  0  0  0  0  0  0  0  0  0
   11.4353   -2.9204   17.8044 C   0  0  0  0  0  0  0  0  0  0  0  0
   11.1529   -4.3028   22.1277 C   0  0  0  0  0  0  0  0  0  0  0  0
   11.1290   -4.8502   19.8052 C   0  0  0  0  0  0  0  0  0  0  0  0
   12.4329   -4.2159   24.4224 C   0  0  0  0  0  0  0  0  0  0  0  0
    3.4740   -9.0387   16.5022 C   0  0  0  0  0  0  0  0  0  0  0  0
    6.8384   -7.9290   17.5282 N   0  0  0  0  0  0  0  0  0  0  0  0
    9.4126   -5.9853   18.4899 C   0  0  0  0  0  0  0  0  0  0  0  0
    4.2064  -10.3242   18.3302 C   0  0  0  0  0  0  0  0  0  0  0  0
    9.6599   -4.1551   16.4796 N   0  0  0  0  0  0  0  0  0  0  0  0
    7.0644   -6.4612   15.7375 N   0  0  0  0  0  0  0  0  0  0  0  0
    5.3549   -9.6322   18.3190 C   0  0  0  0  0  0  0  0  0  0  0  0
   10.3704   -4.9638   18.6510 C   0  0  0  0  0  0  0  0  0  0  0  0
    5.5935   -8.6419   17.4234 C   0  0  0  0  0  0  0  0  0  0  0  0
   13.0726   -4.6648   23.3394 O   0  0  0  0  0  0  0  0  0  0  0  0
    8.5955   -6.0705   17.3996 C   0  0  0  0  0  0  0  0  0  0  0  0
    4.6223   -8.3832   16.5030 C   0  0  0  0  0  0  0  0  0  0  0  0
   12.4690   -5.2624   19.9024 C   0  0  0  0  0  0  0  0  0  0  0  0
    3.2548   -9.9919   17.4189 C   0  0  0  0  0  0  0  0  0  0  0  0
   12.4767   -4.7393   22.1790 C   0  0  0  0  0  0  0  0  0  0  0  0
    7.8593   -5.3772   15.3569 N   0  0  0  0  0  0  0  0  0  0  0  0
    7.4412   -6.9038   16.9283 C   0  0  0  0  0  0  0  0  0  0  0  0
  1 21  4  0
  1 23  4  0
  2  5  1  0
  2 13  4  0
  2 16  4  0
  3  6  4  0
  3  7  4  0
  4 13  4  0
  4 19  4  0
  4 24  4  0
  6 23  4  0
  7 16  1  0
  7 21  4  0
  8 18  1  0
  9 20  4  0
  9 22  4  0
 10 17  1  0
 10 25  1  0
 11 16  4  0
 11 19  4  0
 12 15  4  0
 12 22  4  0
 14 24  4  0
 14 25  4  0
 15 17  4  0
 17 20  4  0
 18 23  1  0
 19 25  4  0
M  END
$$$$

 Created by Python create_sdf_string function

 25 28  0  0  0  0  0  0  0  0999 V2000
   13.1533   -5.2399   21.0682 C   0  0  0  0  0  0  0  0  0  0  0  0
   10.4729   -4.0295   17.6135 C   0  0  0  0  0  0  0  0  0  0  0  0
   10.4789   -4.3641   20.9564 C   0  0  0  0  0  0  0  0  0  0  0  0
    8.7421   -5.1412   16.3650 C   0  0  0  0  0  0  0  0  0  0  0  0
   11.4353   -2.9204   17.8044 C   0  0  0  0  0  0  0  0  0  0  0  0
   11.1529   -4.3028   22.1277 C   0  0  0  0  0  0  0  0  0  0  0  0
   11.1290   -4.8502   19.8052 C   0  0  0  0  0  0  0  0  0  0  0  0
   12.4329   -4.2159   24.4224 C   0  0  0  0  0  0  0  0  0  0  0  0
    3.4740   -9.0387   16.5022 C   0  0  0  0  0  0  0  0  0  0  0  0
    6.8384   -7.9290   17.5282 N   0  0  0  0  0  0  0  0  0  0  0  0
    9.4126   -5.9853   18.4899 C   0  0  0  0  0  0  0  0  0  0  0  0
    4.2064  -10.3242   18.3302 C   0  0  0  0  0  0  0  0  0  0  0  0
    9.6599   -4.1551   16.4796 N   0  0  0  0  0  0  0  0  0  0  0  0
    7.0644   -6.4612   15.7375 N   0  0  0  0  0  0  0  0  0  0  0  0
    5.3549   -9.6322   18.3190 C   0  0  0  0  0  0  0  0  0  0  0  0
   10.3704   -4.9638   18.6510 C   0  0  0  0  0  0  0  0  0  0  0  0
    5.5935   -8.6419   17.4234 C   0  0  0  0  0  0  0  0  0  0  0  0
   13.0726   -4.6648   23.3394 O   0  0  0  0  0  0  0  0  0  0  0  0
    8.5955   -6.0705   17.3996 C   0  0  0  0  0  0  0  0  0  0  0  0
    4.6223   -8.3832   16.5030 C   0  0  0  0  0  0  0  0  0  0  0  0
   12.4690   -5.2624   19.9024 C   0  0  0  0  0  0  0  0  0  0  0  0
    3.2548   -9.9919   17.4189 C   0  0  0  0  0  0  0  0  0  0  0  0
   12.4767   -4.7393   22.1790 C   0  0  0  0  0  0  0  0  0  0  0  0
    7.8593   -5.3772   15.3569 N   0  0  0  0  0  0  0  0  0  0  0  0
    7.4412   -6.9038   16.9283 C   0  0  0  0  0  0  0  0  0  0  0  0
  1 21  4  0
  1 23  4  0
  2  5  1  0
  2 13  4  0
  2 16  4  0
  3  6  4  0
  3  7  4  0
  4 13  4  0
  4 19  4  0
  4 24  4  0
  6 23  4  0
  7 16  1  0
  7 21  4  0
  8 18  1  0
  9 20  4  0
  9 22  4  0
 10 17  1  0
 10 25  1  0
 11 16  4  0
 11 19  4  0
 12 15  4  0
 12 22  4  0
 14 24  4  0
 14 25  4  0
 15 17  4  0
 17 20  4  0
 18 23  1  0
 19 25  4  0
M  END
$$$$

 Created by Python create_sdf_string function

 25 28  0  0  0  0  0  0  0  0999 V2000
   13.1533   -5.2399   21.0682 C   0  0  0  0  0  0  0  0  0  0  0  0
   10.4729   -4.0295   17.6135 C   0  0  0  0  0  0  0  0  0  0  0  0
   10.4789   -4.3641   20.9564 C   0  0  0  0  0  0  0  0  0  0  0  0
    8.7421   -5.1412   16.3650 C   0  0  0  0  0  0  0  0  0  0  0  0
   11.4353   -2.9204   17.8044 C   0  0  0  0  0  0  0  0  0  0  0  0
   11.1529   -4.3028   22.1277 C   0  0  0  0  0  0  0  0  0  0  0  0
   11.1290   -4.8502   19.8052 C   0  0  0  0  0  0  0  0  0  0  0  0
   12.4329   -4.2159   24.4224 C   0  0  0  0  0  0  0  0  0  0  0  0
    3.4740   -9.0387   16.5022 C   0  0  0  0  0  0  0  0  0  0  0  0
    6.8384   -7.9290   17.5282 N   0  0  0  0  0  0  0  0  0  0  0  0
    9.4126   -5.9853   18.4899 C   0  0  0  0  0  0  0  0  0  0  0  0
    4.2064  -10.3242   18.3302 C   0  0  0  0  0  0  0  0  0  0  0  0
    9.6599   -4.1551   16.4796 N   0  0  0  0  0  0  0  0  0  0  0  0
    7.0644   -6.4612   15.7375 N   0  0  0  0  0  0  0  0  0  0  0  0
    5.3549   -9.6322   18.3190 C   0  0  0  0  0  0  0  0  0  0  0  0
   10.3704   -4.9638   18.6510 C   0  0  0  0  0  0  0  0  0  0  0  0
    5.5935   -8.6419   17.4234 C   0  0  0  0  0  0  0  0  0  0  0  0
   13.0726   -4.6648   23.3394 O   0  0  0  0  0  0  0  0  0  0  0  0
    8.5955   -6.0705   17.3996 C   0  0  0  0  0  0  0  0  0  0  0  0
    4.6223   -8.3832   16.5030 C   0  0  0  0  0  0  0  0  0  0  0  0
   12.4690   -5.2624   19.9024 C   0  0  0  0  0  0  0  0  0  0  0  0
    3.2548   -9.9919   17.4189 C   0  0  0  0  0  0  0  0  0  0  0  0
   12.4767   -4.7393   22.1790 C   0  0  0  0  0  0  0  0  0  0  0  0
    7.8593   -5.3772   15.3569 N   0  0  0  0  0  0  0  0  0  0  0  0
    7.4412   -6.9038   16.9283 C   0  0  0  0  0  0  0  0  0  0  0  0
  1 21  4  0
  1 23  4  0
  2  5  1  0
  2 13  4  0
  2 16  4  0
  3  6  4  0
  3  7  4  0
  4 13  4  0
  4 19  4  0
  4 24  4  0
  6 23  4  0
  7 16  1  0
  7 21  4  0
  8 18  1  0
  9 20  4  0
  9 22  4  0
 10 17  1  0
 10 25  1  0
 11 16  4  0
 11 19  4  0
 12 15  4  0
 12 22  4  0
 14 24  4  0
 14 25  4  0
 15 17  4  0
 17 20  4  0
 18 23  1  0
 19 25  4  0
M  END
$$$$

 Created by Python create_sdf_string function

 25 28  0  0  0  0  0  0  0  0999 V2000
   13.1533   -5.2399   21.0682 C   0  0  0  0  0  0  0  0  0  0  0  0
   10.4729   -4.0295   17.6135 C   0  0  0  0  0  0  0  0  0  0  0  0
   10.4789   -4.3641   20.9564 C   0  0  0  0  0  0  0  0  0  0  0  0
    8.7421   -5.1412   16.3650 C   0  0  0  0  0  0  0  0  0  0  0  0
   11.4353   -2.9204   17.8044 C   0  0  0  0  0  0  0  0  0  0  0  0
   11.1529   -4.3028   22.1277 C   0  0  0  0  0  0  0  0  0  0  0  0
   11.1290   -4.8502   19.8052 C   0  0  0  0  0  0  0  0  0  0  0  0
   12.4329   -4.2159   24.4224 C   0  0  0  0  0  0  0  0  0  0  0  0
    3.4740   -9.0387   16.5022 C   0  0  0  0  0  0  0  0  0  0  0  0
    6.8384   -7.9290   17.5282 N   0  0  0  0  0  0  0  0  0  0  0  0
    9.4126   -5.9853   18.4899 C   0  0  0  0  0  0  0  0  0  0  0  0
    4.2064  -10.3242   18.3302 C   0  0  0  0  0  0  0  0  0  0  0  0
    9.6599   -4.1551   16.4796 N   0  0  0  0  0  0  0  0  0  0  0  0
    7.0644   -6.4612   15.7375 N   0  0  0  0  0  0  0  0  0  0  0  0
    5.3549   -9.6322   18.3190 C   0  0  0  0  0  0  0  0  0  0  0  0
   10.3704   -4.9638   18.6510 C   0  0  0  0  0  0  0  0  0  0  0  0
    5.5935   -8.6419   17.4234 C   0  0  0  0  0  0  0  0  0  0  0  0
   13.0726   -4.6648   23.3394 O   0  0  0  0  0  0  0  0  0  0  0  0
    8.5955   -6.0705   17.3996 C   0  0  0  0  0  0  0  0  0  0  0  0
    4.6223   -8.3832   16.5030 C   0  0  0  0  0  0  0  0  0  0  0  0
   12.4690   -5.2624   19.9024 C   0  0  0  0  0  0  0  0  0  0  0  0
    3.2548   -9.9919   17.4189 C   0  0  0  0  0  0  0  0  0  0  0  0
   12.4767   -4.7393   22.1790 C   0  0  0  0  0  0  0  0  0  0  0  0
    7.8593   -5.3772   15.3569 N   0  0  0  0  0  0  0  0  0  0  0  0
    7.4412   -6.9038   16.9283 C   0  0  0  0  0  0  0  0  0  0  0  0
  1 21  4  0
  1 23  4  0
  2  5  1  0
  2 13  4  0
  2 16  4  0
  3  6  4  0
  3  7  4  0
  4 13  4  0
  4 19  4  0
  4 24  4  0
  6 23  4  0
  7 16  1  0
  7 21  4  0
  8 18  1  0
  9 20  4  0
  9 22  4  0
 10 17  1  0
 10 25  1  0
 11 16  4  0
 11 19  4  0
 12 15  4  0
 12 22  4  0
 14 24  4  0
 14 25  4  0
 15 17  4  0
 17 20  4  0
 18 23  1  0
 19 25  4  0
M  END
$$$$

 Created by Python create_sdf_string function

 25 28  0  0  0  0  0  0  0  0999 V2000
   13.1533   -5.2399   21.0682 C   0  0  0  0  0  0  0  0  0  0  0  0
   10.4729   -4.0295   17.6135 C   0  0  0  0  0  0  0  0  0  0  0  0
   10.4789   -4.3641   20.9564 C   0  0  0  0  0  0  0  0  0  0  0  0
    8.7421   -5.1412   16.3650 C   0  0  0  0  0  0  0  0  0  0  0  0
   11.4353   -2.9204   17.8044 C   0  0  0  0  0  0  0  0  0  0  0  0
   11.1529   -4.3028   22.1277 C   0  0  0  0  0  0  0  0  0  0  0  0
   11.1290   -4.8502   19.8052 C   0  0  0  0  0  0  0  0  0  0  0  0
   12.4329   -4.2159   24.4224 C   0  0  0  0  0  0  0  0  0  0  0  0
    3.4740   -9.0387   16.5022 C   0  0  0  0  0  0  0  0  0  0  0  0
    6.8384   -7.9290   17.5282 N   0  0  0  0  0  0  0  0  0  0  0  0
    9.4126   -5.9853   18.4899 C   0  0  0  0  0  0  0  0  0  0  0  0
    4.2064  -10.3242   18.3302 C   0  0  0  0  0  0  0  0  0  0  0  0
    9.6599   -4.1551   16.4796 N   0  0  0  0  0  0  0  0  0  0  0  0
    7.0644   -6.4612   15.7375 N   0  0  0  0  0  0  0  0  0  0  0  0
    5.3549   -9.6322   18.3190 C   0  0  0  0  0  0  0  0  0  0  0  0
   10.3704   -4.9638   18.6510 C   0  0  0  0  0  0  0  0  0  0  0  0
    5.5935   -8.6419   17.4234 C   0  0  0  0  0  0  0  0  0  0  0  0
   13.0726   -4.6648   23.3394 O   0  0  0  0  0  0  0  0  0  0  0  0
    8.5955   -6.0705   17.3996 C   0  0  0  0  0  0  0  0  0  0  0  0
    4.6223   -8.3832   16.5030 C   0  0  0  0  0  0  0  0  0  0  0  0
   12.4690   -5.2624   19.9024 C   0  0  0  0  0  0  0  0  0  0  0  0
    3.2548   -9.9919   17.4189 C   0  0  0  0  0  0  0  0  0  0  0  0
   12.4767   -4.7393   22.1790 C   0  0  0  0  0  0  0  0  0  0  0  0
    7.8593   -5.3772   15.3569 N   0  0  0  0  0  0  0  0  0  0  0  0
    7.4412   -6.9038   16.9283 C   0  0  0  0  0  0  0  0  0  0  0  0
  1 21  4  0
  1 23  4  0
  2  5  1  0
  2 13  4  0
  2 16  4  0
  3  6  4  0
  3  7  4  0
  4 13  4  0
  4 19  4  0
  4 24  4  0
  6 23  4  0
  7 16  1  0
  7 21  4  0
  8 18  1  0
  9 20  4  0
  9 22  4  0
 10 17  1  0
 10 25  1  0
 11 16  4  0
 11 19  4  0
 12 15  4  0
 12 22  4  0
 14 24  4  0
 14 25  4  0
 15 17  4  0
 17 20  4  0
 18 23  1  0
 19 25  4  0
M  END
$$$$

 Created by Python create_sdf_string function

 25 28  0  0  0  0  0  0  0  0999 V2000
   13.1533   -5.2399   21.0682 C   0  0  0  0  0  0  0  0  0  0  0  0
   10.4729   -4.0295   17.6135 C   0  0  0  0  0  0  0  0  0  0  0  0
   10.4789   -4.3641   20.9564 C   0  0  0  0  0  0  0  0  0  0  0  0
    8.7421   -5.1412   16.3650 C   0  0  0  0  0  0  0  0  0  0  0  0
   11.4353   -2.9204   17.8044 C   0  0  0  0  0  0  0  0  0  0  0  0
   11.1529   -4.3028   22.1277 C   0  0  0  0  0  0  0  0  0  0  0  0
   11.1290   -4.8502   19.8052 C   0  0  0  0  0  0  0  0  0  0  0  0
   12.4329   -4.2159   24.4224 C   0  0  0  0  0  0  0  0  0  0  0  0
    3.4740   -9.0387   16.5022 C   0  0  0  0  0  0  0  0  0  0  0  0
    6.8384   -7.9290   17.5282 N   0  0  0  0  0  0  0  0  0  0  0  0
    9.4126   -5.9853   18.4899 C   0  0  0  0  0  0  0  0  0  0  0  0
    4.2064  -10.3242   18.3302 C   0  0  0  0  0  0  0  0  0  0  0  0
    9.6599   -4.1551   16.4796 N   0  0  0  0  0  0  0  0  0  0  0  0
    7.0644   -6.4612   15.7375 N   0  0  0  0  0  0  0  0  0  0  0  0
    5.3549   -9.6322   18.3190 C   0  0  0  0  0  0  0  0  0  0  0  0
   10.3704   -4.9638   18.6510 C   0  0  0  0  0  0  0  0  0  0  0  0
    5.5935   -8.6419   17.4234 C   0  0  0  0  0  0  0  0  0  0  0  0
   13.0726   -4.6648   23.3394 O   0  0  0  0  0  0  0  0  0  0  0  0
    8.5955   -6.0705   17.3996 C   0  0  0  0  0  0  0  0  0  0  0  0
    4.6223   -8.3832   16.5030 C   0  0  0  0  0  0  0  0  0  0  0  0
   12.4690   -5.2624   19.9024 C   0  0  0  0  0  0  0  0  0  0  0  0
    3.2548   -9.9919   17.4189 C   0  0  0  0  0  0  0  0  0  0  0  0
   12.4767   -4.7393   22.1790 C   0  0  0  0  0  0  0  0  0  0  0  0
    7.8593   -5.3772   15.3569 N   0  0  0  0  0  0  0  0  0  0  0  0
    7.4412   -6.9038   16.9283 C   0  0  0  0  0  0  0  0  0  0  0  0
  1 21  4  0
  1 23  4  0
  2  5  1  0
  2 13  4  0
  2 16  4  0
  3  6  4  0
  3  7  4  0
  4 13  4  0
  4 19  4  0
  4 24  4  0
  6 23  4  0
  7 16  1  0
  7 21  4  0
  8 18  1  0
  9 20  4  0
  9 22  4  0
 10 17  1  0
 10 25  1  0
 11 16  4  0
 11 19  4  0
 12 15  4  0
 12 22  4  0
 14 24  4  0
 14 25  4  0
 15 17  4  0
 17 20  4  0
 18 23  1  0
 19 25  4  0
M  END
$$$$

 Created by Python create_sdf_string function

 25 28  0  0  0  0  0  0  0  0999 V2000
   13.1533   -5.2399   21.0682 C   0  0  0  0  0  0  0  0  0  0  0  0
   10.4729   -4.0295   17.6135 C   0  0  0  0  0  0  0  0  0  0  0  0
   10.4789   -4.3641   20.9564 C   0  0  0  0  0  0  0  0  0  0  0  0
    8.7421   -5.1412   16.3650 C   0  0  0  0  0  0  0  0  0  0  0  0
   11.4353   -2.9204   17.8044 C   0  0  0  0  0  0  0  0  0  0  0  0
   11.1529   -4.3028   22.1277 C   0  0  0  0  0  0  0  0  0  0  0  0
   11.1290   -4.8502   19.8052 C   0  0  0  0  0  0  0  0  0  0  0  0
   12.4329   -4.2159   24.4224 C   0  0  0  0  0  0  0  0  0  0  0  0
    3.4740   -9.0387   16.5022 C   0  0  0  0  0  0  0  0  0  0  0  0
    6.8384   -7.9290   17.5282 N   0  0  0  0  0  0  0  0  0  0  0  0
    9.4126   -5.9853   18.4899 C   0  0  0  0  0  0  0  0  0  0  0  0
    4.2064  -10.3242   18.3302 C   0  0  0  0  0  0  0  0  0  0  0  0
    9.6599   -4.1551   16.4796 N   0  0  0  0  0  0  0  0  0  0  0  0
    7.0644   -6.4612   15.7375 N   0  0  0  0  0  0  0  0  0  0  0  0
    5.3549   -9.6322   18.3190 C   0  0  0  0  0  0  0  0  0  0  0  0
   10.3704   -4.9638   18.6510 C   0  0  0  0  0  0  0  0  0  0  0  0
    5.5935   -8.6419   17.4234 C   0  0  0  0  0  0  0  0  0  0  0  0
   13.0726   -4.6648   23.3394 O   0  0  0  0  0  0  0  0  0  0  0  0
    8.5955   -6.0705   17.3996 C   0  0  0  0  0  0  0  0  0  0  0  0
    4.6223   -8.3832   16.5030 C   0  0  0  0  0  0  0  0  0  0  0  0
   12.4690   -5.2624   19.9024 C   0  0  0  0  0  0  0  0  0  0  0  0
    3.2548   -9.9919   17.4189 C   0  0  0  0  0  0  0  0  0  0  0  0
   12.4767   -4.7393   22.1790 C   0  0  0  0  0  0  0  0  0  0  0  0
    7.8593   -5.3772   15.3569 N   0  0  0  0  0  0  0  0  0  0  0  0
    7.4412   -6.9038   16.9283 C   0  0  0  0  0  0  0  0  0  0  0  0
  1 21  4  0
  1 23  4  0
  2  5  1  0
  2 13  4  0
  2 16  4  0
  3  6  4  0
  3  7  4  0
  4 13  4  0
  4 19  4  0
  4 24  4  0
  6 23  4  0
  7 16  1  0
  7 21  4  0
  8 18  1  0
  9 20  4  0
  9 22  4  0
 10 17  1  0
 10 25  1  0
 11 16  4  0
 11 19  4  0
 12 15  4  0
 12 22  4  0
 14 24  4  0
 14 25  4  0
 15 17  4  0
 17 20  4  0
 18 23  1  0
 19 25  4  0
M  END
$$$$

 Created by Python create_sdf_string function

 25 28  0  0  0  0  0  0  0  0999 V2000
   13.1533   -5.2399   21.0682 C   0  0  0  0  0  0  0  0  0  0  0  0
   10.4729   -4.0295   17.6135 C   0  0  0  0  0  0  0  0  0  0  0  0
   10.4789   -4.3641   20.9564 C   0  0  0  0  0  0  0  0  0  0  0  0
    8.7421   -5.1412   16.3650 C   0  0  0  0  0  0  0  0  0  0  0  0
   11.4353   -2.9204   17.8044 C   0  0  0  0  0  0  0  0  0  0  0  0
   11.1529   -4.3028   22.1277 C   0  0  0  0  0  0  0  0  0  0  0  0
   11.1290   -4.8502   19.8052 C   0  0  0  0  0  0  0  0  0  0  0  0
   12.4329   -4.2159   24.4224 C   0  0  0  0  0  0  0  0  0  0  0  0
    3.4740   -9.0387   16.5022 C   0  0  0  0  0  0  0  0  0  0  0  0
    6.8384   -7.9290   17.5282 N   0  0  0  0  0  0  0  0  0  0  0  0
    9.4126   -5.9853   18.4899 C   0  0  0  0  0  0  0  0  0  0  0  0
    4.2064  -10.3242   18.3302 C   0  0  0  0  0  0  0  0  0  0  0  0
    9.6599   -4.1551   16.4796 N   0  0  0  0  0  0  0  0  0  0  0  0
    7.0644   -6.4612   15.7375 N   0  0  0  0  0  0  0  0  0  0  0  0
    5.3549   -9.6322   18.3190 C   0  0  0  0  0  0  0  0  0  0  0  0
   10.3704   -4.9638   18.6510 C   0  0  0  0  0  0  0  0  0  0  0  0
    5.5935   -8.6419   17.4234 C   0  0  0  0  0  0  0  0  0  0  0  0
   13.0726   -4.6648   23.3394 O   0  0  0  0  0  0  0  0  0  0  0  0
    8.5955   -6.0705   17.3996 C   0  0  0  0  0  0  0  0  0  0  0  0
    4.6223   -8.3832   16.5030 C   0  0  0  0  0  0  0  0  0  0  0  0
   12.4690   -5.2624   19.9024 C   0  0  0  0  0  0  0  0  0  0  0  0
    3.2548   -9.9919   17.4189 C   0  0  0  0  0  0  0  0  0  0  0  0
   12.4767   -4.7393   22.1790 C   0  0  0  0  0  0  0  0  0  0  0  0
    7.8593   -5.3772   15.3569 N   0  0  0  0  0  0  0  0  0  0  0  0
    7.4412   -6.9038   16.9283 C   0  0  0  0  0  0  0  0  0  0  0  0
  1 21  4  0
  1 23  4  0
  2  5  1  0
  2 13  4  0
  2 16  4  0
  3  6  4  0
  3  7  4  0
  4 13  4  0
  4 19  4  0
  4 24  4  0
  6 23  4  0
  7 16  1  0
  7 21  4  0
  8 18  1  0
  9 20  4  0
  9 22  4  0
 10 17  1  0
 10 25  1  0
 11 16  4  0
 11 19  4  0
 12 15  4  0
 12 22  4  0
 14 24  4  0
 14 25  4  0
 15 17  4  0
 17 20  4  0
 18 23  1  0
 19 25  4  0
M  END
$$$$

 Created by Python create_sdf_string function

 25 28  0  0  0  0  0  0  0  0999 V2000
   13.1533   -5.2399   21.0682 C   0  0  0  0  0  0  0  0  0  0  0  0
   10.4729   -4.0295   17.6135 C   0  0  0  0  0  0  0  0  0  0  0  0
   10.4789   -4.3641   20.9564 C   0  0  0  0  0  0  0  0  0  0  0  0
    8.7421   -5.1412   16.3650 C   0  0  0  0  0  0  0  0  0  0  0  0
   11.4353   -2.9204   17.8044 C   0  0  0  0  0  0  0  0  0  0  0  0
   11.1529   -4.3028   22.1277 C   0  0  0  0  0  0  0  0  0  0  0  0
   11.1290   -4.8502   19.8052 C   0  0  0  0  0  0  0  0  0  0  0  0
   12.4329   -4.2159   24.4224 C   0  0  0  0  0  0  0  0  0  0  0  0
    3.4740   -9.0387   16.5022 C   0  0  0  0  0  0  0  0  0  0  0  0
    6.8384   -7.9290   17.5282 N   0  0  0  0  0  0  0  0  0  0  0  0
    9.4126   -5.9853   18.4899 C   0  0  0  0  0  0  0  0  0  0  0  0
    4.2064  -10.3242   18.3302 C   0  0  0  0  0  0  0  0  0  0  0  0
    9.6599   -4.1551   16.4796 N   0  0  0  0  0  0  0  0  0  0  0  0
    7.0644   -6.4612   15.7375 N   0  0  0  0  0  0  0  0  0  0  0  0
    5.3549   -9.6322   18.3190 C   0  0  0  0  0  0  0  0  0  0  0  0
   10.3704   -4.9638   18.6510 C   0  0  0  0  0  0  0  0  0  0  0  0
    5.5935   -8.6419   17.4234 C   0  0  0  0  0  0  0  0  0  0  0  0
   13.0726   -4.6648   23.3394 O   0  0  0  0  0  0  0  0  0  0  0  0
    8.5955   -6.0705   17.3996 C   0  0  0  0  0  0  0  0  0  0  0  0
    4.6223   -8.3832   16.5030 C   0  0  0  0  0  0  0  0  0  0  0  0
   12.4690   -5.2624   19.9024 C   0  0  0  0  0  0  0  0  0  0  0  0
    3.2548   -9.9919   17.4189 C   0  0  0  0  0  0  0  0  0  0  0  0
   12.4767   -4.7393   22.1790 C   0  0  0  0  0  0  0  0  0  0  0  0
    7.8593   -5.3772   15.3569 N   0  0  0  0  0  0  0  0  0  0  0  0
    7.4412   -6.9038   16.9283 C   0  0  0  0  0  0  0  0  0  0  0  0
  1 21  4  0
  1 23  4  0
  2  5  1  0
  2 13  4  0
  2 16  4  0
  3  6  4  0
  3  7  4  0
  4 13  4  0
  4 19  4  0
  4 24  4  0
  6 23  4  0
  7 16  1  0
  7 21  4  0
  8 18  1  0
  9 20  4  0
  9 22  4  0
 10 17  1  0
 10 25  1  0
 11 16  4  0
 11 19  4  0
 12 15  4  0
 12 22  4  0
 14 24  4  0
 14 25  4  0
 15 17  4  0
 17 20  4  0
 18 23  1  0
 19 25  4  0
M  END
$$$$

 Created by Python create_sdf_string function

 25 28  0  0  0  0  0  0  0  0999 V2000
   13.1533   -5.2399   21.0682 C   0  0  0  0  0  0  0  0  0  0  0  0
   10.4729   -4.0295   17.6135 C   0  0  0  0  0  0  0  0  0  0  0  0
   10.4789   -4.3641   20.9564 C   0  0  0  0  0  0  0  0  0  0  0  0
    8.7421   -5.1412   16.3650 C   0  0  0  0  0  0  0  0  0  0  0  0
   11.4353   -2.9204   17.8044 C   0  0  0  0  0  0  0  0  0  0  0  0
   11.1529   -4.3028   22.1277 C   0  0  0  0  0  0  0  0  0  0  0  0
   11.1290   -4.8502   19.8052 C   0  0  0  0  0  0  0  0  0  0  0  0
   12.4329   -4.2159   24.4224 C   0  0  0  0  0  0  0  0  0  0  0  0
    3.4740   -9.0387   16.5022 C   0  0  0  0  0  0  0  0  0  0  0  0
    6.8384   -7.9290   17.5282 N   0  0  0  0  0  0  0  0  0  0  0  0
    9.4126   -5.9853   18.4899 C   0  0  0  0  0  0  0  0  0  0  0  0
    4.2064  -10.3242   18.3302 C   0  0  0  0  0  0  0  0  0  0  0  0
    9.6599   -4.1551   16.4796 N   0  0  0  0  0  0  0  0  0  0  0  0
    7.0644   -6.4612   15.7375 N   0  0  0  0  0  0  0  0  0  0  0  0
    5.3549   -9.6322   18.3190 C   0  0  0  0  0  0  0  0  0  0  0  0
   10.3704   -4.9638   18.6510 C   0  0  0  0  0  0  0  0  0  0  0  0
    5.5935   -8.6419   17.4234 C   0  0  0  0  0  0  0  0  0  0  0  0
   13.0726   -4.6648   23.3394 O   0  0  0  0  0  0  0  0  0  0  0  0
    8.5955   -6.0705   17.3996 C   0  0  0  0  0  0  0  0  0  0  0  0
    4.6223   -8.3832   16.5030 C   0  0  0  0  0  0  0  0  0  0  0  0
   12.4690   -5.2624   19.9024 C   0  0  0  0  0  0  0  0  0  0  0  0
    3.2548   -9.9919   17.4189 C   0  0  0  0  0  0  0  0  0  0  0  0
   12.4767   -4.7393   22.1790 C   0  0  0  0  0  0  0  0  0  0  0  0
    7.8593   -5.3772   15.3569 N   0  0  0  0  0  0  0  0  0  0  0  0
    7.4412   -6.9038   16.9283 C   0  0  0  0  0  0  0  0  0  0  0  0
  1 21  4  0
  1 23  4  0
  2  5  1  0
  2 13  4  0
  2 16  4  0
  3  6  4  0
  3  7  4  0
  4 13  4  0
  4 19  4  0
  4 24  4  0
  6 23  4  0
  7 16  1  0
  7 21  4  0
  8 18  1  0
  9 20  4  0
  9 22  4  0
 10 17  1  0
 10 25  1  0
 11 16  4  0
 11 19  4  0
 12 15  4  0
 12 22  4  0
 14 24  4  0
 14 25  4  0
 15 17  4  0
 17 20  4  0
 18 23  1  0
 19 25  4  0
M  END
$$$$

 Created by Python create_sdf_string function

 25 28  0  0  0  0  0  0  0  0999 V2000
   13.1533   -5.2399   21.0682 C   0  0  0  0  0  0  0  0  0  0  0  0
   10.4729   -4.0295   17.6135 C   0  0  0  0  0  0  0  0  0  0  0  0
   10.4789   -4.3641   20.9564 C   0  0  0  0  0  0  0  0  0  0  0  0
    8.7421   -5.1412   16.3650 C   0  0  0  0  0  0  0  0  0  0  0  0
   11.4353   -2.9204   17.8044 C   0  0  0  0  0  0  0  0  0  0  0  0
   11.1529   -4.3028   22.1277 C   0  0  0  0  0  0  0  0  0  0  0  0
   11.1290   -4.8502   19.8052 C   0  0  0  0  0  0  0  0  0  0  0  0
   12.4329   -4.2159   24.4224 C   0  0  0  0  0  0  0  0  0  0  0  0
    3.4740   -9.0387   16.5022 C   0  0  0  0  0  0  0  0  0  0  0  0
    6.8384   -7.9290   17.5282 N   0  0  0  0  0  0  0  0  0  0  0  0
    9.4126   -5.9853   18.4899 C   0  0  0  0  0  0  0  0  0  0  0  0
    4.2064  -10.3242   18.3302 C   0  0  0  0  0  0  0  0  0  0  0  0
    9.6599   -4.1551   16.4796 N   0  0  0  0  0  0  0  0  0  0  0  0
    7.0644   -6.4612   15.7375 N   0  0  0  0  0  0  0  0  0  0  0  0
    5.3549   -9.6322   18.3190 C   0  0  0  0  0  0  0  0  0  0  0  0
   10.3704   -4.9638   18.6510 C   0  0  0  0  0  0  0  0  0  0  0  0
    5.5935   -8.6419   17.4234 C   0  0  0  0  0  0  0  0  0  0  0  0
   13.0726   -4.6648   23.3394 O   0  0  0  0  0  0  0  0  0  0  0  0
    8.5955   -6.0705   17.3996 C   0  0  0  0  0  0  0  0  0  0  0  0
    4.6223   -8.3832   16.5030 C   0  0  0  0  0  0  0  0  0  0  0  0
   12.4690   -5.2624   19.9024 C   0  0  0  0  0  0  0  0  0  0  0  0
    3.2548   -9.9919   17.4189 C   0  0  0  0  0  0  0  0  0  0  0  0
   12.4767   -4.7393   22.1790 C   0  0  0  0  0  0  0  0  0  0  0  0
    7.8593   -5.3772   15.3569 N   0  0  0  0  0  0  0  0  0  0  0  0
    7.4412   -6.9038   16.9283 C   0  0  0  0  0  0  0  0  0  0  0  0
  1 21  4  0
  1 23  4  0
  2  5  1  0
  2 13  4  0
  2 16  4  0
  3  6  4  0
  3  7  4  0
  4 13  4  0
  4 19  4  0
  4 24  4  0
  6 23  4  0
  7 16  1  0
  7 21  4  0
  8 18  1  0
  9 20  4  0
  9 22  4  0
 10 17  1  0
 10 25  1  0
 11 16  4  0
 11 19  4  0
 12 15  4  0
 12 22  4  0
 14 24  4  0
 14 25  4  0
 15 17  4  0
 17 20  4  0
 18 23  1  0
 19 25  4  0
M  END
$$$$

 Created by Python create_sdf_string function

 25 28  0  0  0  0  0  0  0  0999 V2000
   13.1533   -5.2399   21.0682 C   0  0  0  0  0  0  0  0  0  0  0  0
   10.4729   -4.0295   17.6135 C   0  0  0  0  0  0  0  0  0  0  0  0
   10.4789   -4.3641   20.9564 C   0  0  0  0  0  0  0  0  0  0  0  0
    8.7421   -5.1412   16.3650 C   0  0  0  0  0  0  0  0  0  0  0  0
   11.4353   -2.9204   17.8044 C   0  0  0  0  0  0  0  0  0  0  0  0
   11.1529   -4.3028   22.1277 C   0  0  0  0  0  0  0  0  0  0  0  0
   11.1290   -4.8502   19.8052 C   0  0  0  0  0  0  0  0  0  0  0  0
   12.4329   -4.2159   24.4224 C   0  0  0  0  0  0  0  0  0  0  0  0
    3.4740   -9.0387   16.5022 C   0  0  0  0  0  0  0  0  0  0  0  0
    6.8384   -7.9290   17.5282 N   0  0  0  0  0  0  0  0  0  0  0  0
    9.4126   -5.9853   18.4899 C   0  0  0  0  0  0  0  0  0  0  0  0
    4.2064  -10.3242   18.3302 C   0  0  0  0  0  0  0  0  0  0  0  0
    9.6599   -4.1551   16.4796 N   0  0  0  0  0  0  0  0  0  0  0  0
    7.0644   -6.4612   15.7375 N   0  0  0  0  0  0  0  0  0  0  0  0
    5.3549   -9.6322   18.3190 C   0  0  0  0  0  0  0  0  0  0  0  0
   10.3704   -4.9638   18.6510 C   0  0  0  0  0  0  0  0  0  0  0  0
    5.5935   -8.6419   17.4234 C   0  0  0  0  0  0  0  0  0  0  0  0
   13.0726   -4.6648   23.3394 O   0  0  0  0  0  0  0  0  0  0  0  0
    8.5955   -6.0705   17.3996 C   0  0  0  0  0  0  0  0  0  0  0  0
    4.6223   -8.3832   16.5030 C   0  0  0  0  0  0  0  0  0  0  0  0
   12.4690   -5.2624   19.9024 C   0  0  0  0  0  0  0  0  0  0  0  0
    3.2548   -9.9919   17.4189 C   0  0  0  0  0  0  0  0  0  0  0  0
   12.4767   -4.7393   22.1790 C   0  0  0  0  0  0  0  0  0  0  0  0
    7.8593   -5.3772   15.3569 N   0  0  0  0  0  0  0  0  0  0  0  0
    7.4412   -6.9038   16.9283 C   0  0  0  0  0  0  0  0  0  0  0  0
  1 21  4  0
  1 23  4  0
  2  5  1  0
  2 13  4  0
  2 16  4  0
  3  6  4  0
  3  7  4  0
  4 13  4  0
  4 19  4  0
  4 24  4  0
  6 23  4  0
  7 16  1  0
  7 21  4  0
  8 18  1  0
  9 20  4  0
  9 22  4  0
 10 17  1  0
 10 25  1  0
 11 16  4  0
 11 19  4  0
 12 15  4  0
 12 22  4  0
 14 24  4  0
 14 25  4  0
 15 17  4  0
 17 20  4  0
 18 23  1  0
 19 25  4  0
M  END
$$$$

 Created by Python create_sdf_string function

 25 28  0  0  0  0  0  0  0  0999 V2000
   13.1533   -5.2399   21.0682 C   0  0  0  0  0  0  0  0  0  0  0  0
   10.4729   -4.0295   17.6135 C   0  0  0  0  0  0  0  0  0  0  0  0
   10.4789   -4.3641   20.9564 C   0  0  0  0  0  0  0  0  0  0  0  0
    8.7421   -5.1412   16.3650 C   0  0  0  0  0  0  0  0  0  0  0  0
   11.4353   -2.9204   17.8044 C   0  0  0  0  0  0  0  0  0  0  0  0
   11.1529   -4.3028   22.1277 C   0  0  0  0  0  0  0  0  0  0  0  0
   11.1290   -4.8502   19.8052 C   0  0  0  0  0  0  0  0  0  0  0  0
   12.4329   -4.2159   24.4224 C   0  0  0  0  0  0  0  0  0  0  0  0
    3.4740   -9.0387   16.5022 C   0  0  0  0  0  0  0  0  0  0  0  0
    6.8384   -7.9290   17.5282 N   0  0  0  0  0  0  0  0  0  0  0  0
    9.4126   -5.9853   18.4899 C   0  0  0  0  0  0  0  0  0  0  0  0
    4.2064  -10.3242   18.3302 C   0  0  0  0  0  0  0  0  0  0  0  0
    9.6599   -4.1551   16.4796 N   0  0  0  0  0  0  0  0  0  0  0  0
    7.0644   -6.4612   15.7375 N   0  0  0  0  0  0  0  0  0  0  0  0
    5.3549   -9.6322   18.3190 C   0  0  0  0  0  0  0  0  0  0  0  0
   10.3704   -4.9638   18.6510 C   0  0  0  0  0  0  0  0  0  0  0  0
    5.5935   -8.6419   17.4234 C   0  0  0  0  0  0  0  0  0  0  0  0
   13.0726   -4.6648   23.3394 O   0  0  0  0  0  0  0  0  0  0  0  0
    8.5955   -6.0705   17.3996 C   0  0  0  0  0  0  0  0  0  0  0  0
    4.6223   -8.3832   16.5030 C   0  0  0  0  0  0  0  0  0  0  0  0
   12.4690   -5.2624   19.9024 C   0  0  0  0  0  0  0  0  0  0  0  0
    3.2548   -9.9919   17.4189 C   0  0  0  0  0  0  0  0  0  0  0  0
   12.4767   -4.7393   22.1790 C   0  0  0  0  0  0  0  0  0  0  0  0
    7.8593   -5.3772   15.3569 N   0  0  0  0  0  0  0  0  0  0  0  0
    7.4412   -6.9038   16.9283 C   0  0  0  0  0  0  0  0  0  0  0  0
  1 21  4  0
  1 23  4  0
  2  5  1  0
  2 13  4  0
  2 16  4  0
  3  6  4  0
  3  7  4  0
  4 13  4  0
  4 19  4  0
  4 24  4  0
  6 23  4  0
  7 16  1  0
  7 21  4  0
  8 18  1  0
  9 20  4  0
  9 22  4  0
 10 17  1  0
 10 25  1  0
 11 16  4  0
 11 19  4  0
 12 15  4  0
 12 22  4  0
 14 24  4  0
 14 25  4  0
 15 17  4  0
 17 20  4  0
 18 23  1  0
 19 25  4  0
M  END
$$$$

 Created by Python create_sdf_string function

 25 28  0  0  0  0  0  0  0  0999 V2000
   13.1533   -5.2399   21.0682 C   0  0  0  0  0  0  0  0  0  0  0  0
   10.4729   -4.0295   17.6135 C   0  0  0  0  0  0  0  0  0  0  0  0
   10.4789   -4.3641   20.9564 C   0  0  0  0  0  0  0  0  0  0  0  0
    8.7421   -5.1412   16.3650 C   0  0  0  0  0  0  0  0  0  0  0  0
   11.4353   -2.9204   17.8044 C   0  0  0  0  0  0  0  0  0  0  0  0
   11.1529   -4.3028   22.1277 C   0  0  0  0  0  0  0  0  0  0  0  0
   11.1290   -4.8502   19.8052 C   0  0  0  0  0  0  0  0  0  0  0  0
   12.4329   -4.2159   24.4224 C   0  0  0  0  0  0  0  0  0  0  0  0
    3.4740   -9.0387   16.5022 C   0  0  0  0  0  0  0  0  0  0  0  0
    6.8384   -7.9290   17.5282 N   0  0  0  0  0  0  0  0  0  0  0  0
    9.4126   -5.9853   18.4899 C   0  0  0  0  0  0  0  0  0  0  0  0
    4.2064  -10.3242   18.3302 C   0  0  0  0  0  0  0  0  0  0  0  0
    9.6599   -4.1551   16.4796 N   0  0  0  0  0  0  0  0  0  0  0  0
    7.0644   -6.4612   15.7375 N   0  0  0  0  0  0  0  0  0  0  0  0
    5.3549   -9.6322   18.3190 C   0  0  0  0  0  0  0  0  0  0  0  0
   10.3704   -4.9638   18.6510 C   0  0  0  0  0  0  0  0  0  0  0  0
    5.5935   -8.6419   17.4234 C   0  0  0  0  0  0  0  0  0  0  0  0
   13.0726   -4.6648   23.3394 O   0  0  0  0  0  0  0  0  0  0  0  0
    8.5955   -6.0705   17.3996 C   0  0  0  0  0  0  0  0  0  0  0  0
    4.6223   -8.3832   16.5030 C   0  0  0  0  0  0  0  0  0  0  0  0
   12.4690   -5.2624   19.9024 C   0  0  0  0  0  0  0  0  0  0  0  0
    3.2548   -9.9919   17.4189 C   0  0  0  0  0  0  0  0  0  0  0  0
   12.4767   -4.7393   22.1790 C   0  0  0  0  0  0  0  0  0  0  0  0
    7.8593   -5.3772   15.3569 N   0  0  0  0  0  0  0  0  0  0  0  0
    7.4412   -6.9038   16.9283 C   0  0  0  0  0  0  0  0  0  0  0  0
  1 21  4  0
  1 23  4  0
  2  5  1  0
  2 13  4  0
  2 16  4  0
  3  6  4  0
  3  7  4  0
  4 13  4  0
  4 19  4  0
  4 24  4  0
  6 23  4  0
  7 16  1  0
  7 21  4  0
  8 18  1  0
  9 20  4  0
  9 22  4  0
 10 17  1  0
 10 25  1  0
 11 16  4  0
 11 19  4  0
 12 15  4  0
 12 22  4  0
 14 24  4  0
 14 25  4  0
 15 17  4  0
 17 20  4  0
 18 23  1  0
 19 25  4  0
M  END
$$$$

 Created by Python create_sdf_string function

 25 28  0  0  0  0  0  0  0  0999 V2000
   13.1533   -5.2399   21.0682 C   0  0  0  0  0  0  0  0  0  0  0  0
   10.4729   -4.0295   17.6135 C   0  0  0  0  0  0  0  0  0  0  0  0
   10.4789   -4.3641   20.9564 C   0  0  0  0  0  0  0  0  0  0  0  0
    8.7421   -5.1412   16.3650 C   0  0  0  0  0  0  0  0  0  0  0  0
   11.4353   -2.9204   17.8044 C   0  0  0  0  0  0  0  0  0  0  0  0
   11.1529   -4.3028   22.1277 C   0  0  0  0  0  0  0  0  0  0  0  0
   11.1290   -4.8502   19.8052 C   0  0  0  0  0  0  0  0  0  0  0  0
   12.4329   -4.2159   24.4224 C   0  0  0  0  0  0  0  0  0  0  0  0
    3.4740   -9.0387   16.5022 C   0  0  0  0  0  0  0  0  0  0  0  0
    6.8384   -7.9290   17.5282 N   0  0  0  0  0  0  0  0  0  0  0  0
    9.4126   -5.9853   18.4899 C   0  0  0  0  0  0  0  0  0  0  0  0
    4.2064  -10.3242   18.3302 C   0  0  0  0  0  0  0  0  0  0  0  0
    9.6599   -4.1551   16.4796 N   0  0  0  0  0  0  0  0  0  0  0  0
    7.0644   -6.4612   15.7375 N   0  0  0  0  0  0  0  0  0  0  0  0
    5.3549   -9.6322   18.3190 C   0  0  0  0  0  0  0  0  0  0  0  0
   10.3704   -4.9638   18.6510 C   0  0  0  0  0  0  0  0  0  0  0  0
    5.5935   -8.6419   17.4234 C   0  0  0  0  0  0  0  0  0  0  0  0
   13.0726   -4.6648   23.3394 O   0  0  0  0  0  0  0  0  0  0  0  0
    8.5955   -6.0705   17.3996 C   0  0  0  0  0  0  0  0  0  0  0  0
    4.6223   -8.3832   16.5030 C   0  0  0  0  0  0  0  0  0  0  0  0
   12.4690   -5.2624   19.9024 C   0  0  0  0  0  0  0  0  0  0  0  0
    3.2548   -9.9919   17.4189 C   0  0  0  0  0  0  0  0  0  0  0  0
   12.4767   -4.7393   22.1790 C   0  0  0  0  0  0  0  0  0  0  0  0
    7.8593   -5.3772   15.3569 N   0  0  0  0  0  0  0  0  0  0  0  0
    7.4412   -6.9038   16.9283 C   0  0  0  0  0  0  0  0  0  0  0  0
  1 21  4  0
  1 23  4  0
  2  5  1  0
  2 13  4  0
  2 16  4  0
  3  6  4  0
  3  7  4  0
  4 13  4  0
  4 19  4  0
  4 24  4  0
  6 23  4  0
  7 16  1  0
  7 21  4  0
  8 18  1  0
  9 20  4  0
  9 22  4  0
 10 17  1  0
 10 25  1  0
 11 16  4  0
 11 19  4  0
 12 15  4  0
 12 22  4  0
 14 24  4  0
 14 25  4  0
 15 17  4  0
 17 20  4  0
 18 23  1  0
 19 25  4  0
M  END
$$$$

 Created by Python create_sdf_string function

 25 28  0  0  0  0  0  0  0  0999 V2000
   13.1533   -5.2399   21.0682 C   0  0  0  0  0  0  0  0  0  0  0  0
   10.4729   -4.0295   17.6135 C   0  0  0  0  0  0  0  0  0  0  0  0
   10.4789   -4.3641   20.9564 C   0  0  0  0  0  0  0  0  0  0  0  0
    8.7421   -5.1412   16.3650 C   0  0  0  0  0  0  0  0  0  0  0  0
   11.4353   -2.9204   17.8044 C   0  0  0  0  0  0  0  0  0  0  0  0
   11.1529   -4.3028   22.1277 C   0  0  0  0  0  0  0  0  0  0  0  0
   11.1290   -4.8502   19.8052 C   0  0  0  0  0  0  0  0  0  0  0  0
   12.4329   -4.2159   24.4224 C   0  0  0  0  0  0  0  0  0  0  0  0
    3.4740   -9.0387   16.5022 C   0  0  0  0  0  0  0  0  0  0  0  0
    6.8384   -7.9290   17.5282 N   0  0  0  0  0  0  0  0  0  0  0  0
    9.4126   -5.9853   18.4899 C   0  0  0  0  0  0  0  0  0  0  0  0
    4.2064  -10.3242   18.3302 C   0  0  0  0  0  0  0  0  0  0  0  0
    9.6599   -4.1551   16.4796 N   0  0  0  0  0  0  0  0  0  0  0  0
    7.0644   -6.4612   15.7375 N   0  0  0  0  0  0  0  0  0  0  0  0
    5.3549   -9.6322   18.3190 C   0  0  0  0  0  0  0  0  0  0  0  0
   10.3704   -4.9638   18.6510 C   0  0  0  0  0  0  0  0  0  0  0  0
    5.5935   -8.6419   17.4234 C   0  0  0  0  0  0  0  0  0  0  0  0
   13.0726   -4.6648   23.3394 O   0  0  0  0  0  0  0  0  0  0  0  0
    8.5955   -6.0705   17.3996 C   0  0  0  0  0  0  0  0  0  0  0  0
    4.6223   -8.3832   16.5030 C   0  0  0  0  0  0  0  0  0  0  0  0
   12.4690   -5.2624   19.9024 C   0  0  0  0  0  0  0  0  0  0  0  0
    3.2548   -9.9919   17.4189 C   0  0  0  0  0  0  0  0  0  0  0  0
   12.4767   -4.7393   22.1790 C   0  0  0  0  0  0  0  0  0  0  0  0
    7.8593   -5.3772   15.3569 N   0  0  0  0  0  0  0  0  0  0  0  0
    7.4412   -6.9038   16.9283 C   0  0  0  0  0  0  0  0  0  0  0  0
  1 21  4  0
  1 23  4  0
  2  5  1  0
  2 13  4  0
  2 16  4  0
  3  6  4  0
  3  7  4  0
  4 13  4  0
  4 19  4  0
  4 24  4  0
  6 23  4  0
  7 16  1  0
  7 21  4  0
  8 18  1  0
  9 20  4  0
  9 22  4  0
 10 17  1  0
 10 25  1  0
 11 16  4  0
 11 19  4  0
 12 15  4  0
 12 22  4  0
 14 24  4  0
 14 25  4  0
 15 17  4  0
 17 20  4  0
 18 23  1  0
 19 25  4  0
M  END
$$$$

 Created by Python create_sdf_string function

 25 28  0  0  0  0  0  0  0  0999 V2000
   13.1533   -5.2399   21.0682 C   0  0  0  0  0  0  0  0  0  0  0  0
   10.4729   -4.0295   17.6135 C   0  0  0  0  0  0  0  0  0  0  0  0
   10.4789   -4.3641   20.9564 C   0  0  0  0  0  0  0  0  0  0  0  0
    8.7421   -5.1412   16.3650 C   0  0  0  0  0  0  0  0  0  0  0  0
   11.4353   -2.9204   17.8044 C   0  0  0  0  0  0  0  0  0  0  0  0
   11.1529   -4.3028   22.1277 C   0  0  0  0  0  0  0  0  0  0  0  0
   11.1290   -4.8502   19.8052 C   0  0  0  0  0  0  0  0  0  0  0  0
   12.4329   -4.2159   24.4224 C   0  0  0  0  0  0  0  0  0  0  0  0
    3.4740   -9.0387   16.5022 C   0  0  0  0  0  0  0  0  0  0  0  0
    6.8384   -7.9290   17.5282 N   0  0  0  0  0  0  0  0  0  0  0  0
    9.4126   -5.9853   18.4899 C   0  0  0  0  0  0  0  0  0  0  0  0
    4.2064  -10.3242   18.3302 C   0  0  0  0  0  0  0  0  0  0  0  0
    9.6599   -4.1551   16.4796 N   0  0  0  0  0  0  0  0  0  0  0  0
    7.0644   -6.4612   15.7375 N   0  0  0  0  0  0  0  0  0  0  0  0
    5.3549   -9.6322   18.3190 C   0  0  0  0  0  0  0  0  0  0  0  0
   10.3704   -4.9638   18.6510 C   0  0  0  0  0  0  0  0  0  0  0  0
    5.5935   -8.6419   17.4234 C   0  0  0  0  0  0  0  0  0  0  0  0
   13.0726   -4.6648   23.3394 O   0  0  0  0  0  0  0  0  0  0  0  0
    8.5955   -6.0705   17.3996 C   0  0  0  0  0  0  0  0  0  0  0  0
    4.6223   -8.3832   16.5030 C   0  0  0  0  0  0  0  0  0  0  0  0
   12.4690   -5.2624   19.9024 C   0  0  0  0  0  0  0  0  0  0  0  0
    3.2548   -9.9919   17.4189 C   0  0  0  0  0  0  0  0  0  0  0  0
   12.4767   -4.7393   22.1790 C   0  0  0  0  0  0  0  0  0  0  0  0
    7.8593   -5.3772   15.3569 N   0  0  0  0  0  0  0  0  0  0  0  0
    7.4412   -6.9038   16.9283 C   0  0  0  0  0  0  0  0  0  0  0  0
  1 21  4  0
  1 23  4  0
  2  5  1  0
  2 13  4  0
  2 16  4  0
  3  6  4  0
  3  7  4  0
  4 13  4  0
  4 19  4  0
  4 24  4  0
  6 23  4  0
  7 16  1  0
  7 21  4  0
  8 18  1  0
  9 20  4  0
  9 22  4  0
 10 17  1  0
 10 25  1  0
 11 16  4  0
 11 19  4  0
 12 15  4  0
 12 22  4  0
 14 24  4  0
 14 25  4  0
 15 17  4  0
 17 20  4  0
 18 23  1  0
 19 25  4  0
M  END
$$$$

 Created by Python create_sdf_string function

 25 28  0  0  0  0  0  0  0  0999 V2000
   13.1533   -5.2399   21.0682 C   0  0  0  0  0  0  0  0  0  0  0  0
   10.4729   -4.0295   17.6135 C   0  0  0  0  0  0  0  0  0  0  0  0
   10.4789   -4.3641   20.9564 C   0  0  0  0  0  0  0  0  0  0  0  0
    8.7421   -5.1412   16.3650 C   0  0  0  0  0  0  0  0  0  0  0  0
   11.4353   -2.9204   17.8044 C   0  0  0  0  0  0  0  0  0  0  0  0
   11.1529   -4.3028   22.1277 C   0  0  0  0  0  0  0  0  0  0  0  0
   11.1290   -4.8502   19.8052 C   0  0  0  0  0  0  0  0  0  0  0  0
   12.4329   -4.2159   24.4224 C   0  0  0  0  0  0  0  0  0  0  0  0
    3.4740   -9.0387   16.5022 C   0  0  0  0  0  0  0  0  0  0  0  0
    6.8384   -7.9290   17.5282 N   0  0  0  0  0  0  0  0  0  0  0  0
    9.4126   -5.9853   18.4899 C   0  0  0  0  0  0  0  0  0  0  0  0
    4.2064  -10.3242   18.3302 C   0  0  0  0  0  0  0  0  0  0  0  0
    9.6599   -4.1551   16.4796 N   0  0  0  0  0  0  0  0  0  0  0  0
    7.0644   -6.4612   15.7375 N   0  0  0  0  0  0  0  0  0  0  0  0
    5.3549   -9.6322   18.3190 C   0  0  0  0  0  0  0  0  0  0  0  0
   10.3704   -4.9638   18.6510 C   0  0  0  0  0  0  0  0  0  0  0  0
    5.5935   -8.6419   17.4234 C   0  0  0  0  0  0  0  0  0  0  0  0
   13.0726   -4.6648   23.3394 O   0  0  0  0  0  0  0  0  0  0  0  0
    8.5955   -6.0705   17.3996 C   0  0  0  0  0  0  0  0  0  0  0  0
    4.6223   -8.3832   16.5030 C   0  0  0  0  0  0  0  0  0  0  0  0
   12.4690   -5.2624   19.9024 C   0  0  0  0  0  0  0  0  0  0  0  0
    3.2548   -9.9919   17.4189 C   0  0  0  0  0  0  0  0  0  0  0  0
   12.4767   -4.7393   22.1790 C   0  0  0  0  0  0  0  0  0  0  0  0
    7.8593   -5.3772   15.3569 N   0  0  0  0  0  0  0  0  0  0  0  0
    7.4412   -6.9038   16.9283 C   0  0  0  0  0  0  0  0  0  0  0  0
  1 21  4  0
  1 23  4  0
  2  5  1  0
  2 13  4  0
  2 16  4  0
  3  6  4  0
  3  7  4  0
  4 13  4  0
  4 19  4  0
  4 24  4  0
  6 23  4  0
  7 16  1  0
  7 21  4  0
  8 18  1  0
  9 20  4  0
  9 22  4  0
 10 17  1  0
 10 25  1  0
 11 16  4  0
 11 19  4  0
 12 15  4  0
 12 22  4  0
 14 24  4  0
 14 25  4  0
 15 17  4  0
 17 20  4  0
 18 23  1  0
 19 25  4  0
M  END
$$$$

 Created by Python create_sdf_string function

 25 28  0  0  0  0  0  0  0  0999 V2000
   13.1533   -5.2399   21.0682 C   0  0  0  0  0  0  0  0  0  0  0  0
   10.4729   -4.0295   17.6135 C   0  0  0  0  0  0  0  0  0  0  0  0
   10.4789   -4.3641   20.9564 C   0  0  0  0  0  0  0  0  0  0  0  0
    8.7421   -5.1412   16.3650 C   0  0  0  0  0  0  0  0  0  0  0  0
   11.4353   -2.9204   17.8044 C   0  0  0  0  0  0  0  0  0  0  0  0
   11.1529   -4.3028   22.1277 C   0  0  0  0  0  0  0  0  0  0  0  0
   11.1290   -4.8502   19.8052 C   0  0  0  0  0  0  0  0  0  0  0  0
   12.4329   -4.2159   24.4224 C   0  0  0  0  0  0  0  0  0  0  0  0
    3.4740   -9.0387   16.5022 C   0  0  0  0  0  0  0  0  0  0  0  0
    6.8384   -7.9290   17.5282 N   0  0  0  0  0  0  0  0  0  0  0  0
    9.4126   -5.9853   18.4899 C   0  0  0  0  0  0  0  0  0  0  0  0
    4.2064  -10.3242   18.3302 C   0  0  0  0  0  0  0  0  0  0  0  0
    9.6599   -4.1551   16.4796 N   0  0  0  0  0  0  0  0  0  0  0  0
    7.0644   -6.4612   15.7375 N   0  0  0  0  0  0  0  0  0  0  0  0
    5.3549   -9.6322   18.3190 C   0  0  0  0  0  0  0  0  0  0  0  0
   10.3704   -4.9638   18.6510 C   0  0  0  0  0  0  0  0  0  0  0  0
    5.5935   -8.6419   17.4234 C   0  0  0  0  0  0  0  0  0  0  0  0
   13.0726   -4.6648   23.3394 O   0  0  0  0  0  0  0  0  0  0  0  0
    8.5955   -6.0705   17.3996 C   0  0  0  0  0  0  0  0  0  0  0  0
    4.6223   -8.3832   16.5030 C   0  0  0  0  0  0  0  0  0  0  0  0
   12.4690   -5.2624   19.9024 C   0  0  0  0  0  0  0  0  0  0  0  0
    3.2548   -9.9919   17.4189 C   0  0  0  0  0  0  0  0  0  0  0  0
   12.4767   -4.7393   22.1790 C   0  0  0  0  0  0  0  0  0  0  0  0
    7.8593   -5.3772   15.3569 N   0  0  0  0  0  0  0  0  0  0  0  0
    7.4412   -6.9038   16.9283 C   0  0  0  0  0  0  0  0  0  0  0  0
  1 21  4  0
  1 23  4  0
  2  5  1  0
  2 13  4  0
  2 16  4  0
  3  6  4  0
  3  7  4  0
  4 13  4  0
  4 19  4  0
  4 24  4  0
  6 23  4  0
  7 16  1  0
  7 21  4  0
  8 18  1  0
  9 20  4  0
  9 22  4  0
 10 17  1  0
 10 25  1  0
 11 16  4  0
 11 19  4  0
 12 15  4  0
 12 22  4  0
 14 24  4  0
 14 25  4  0
 15 17  4  0
 17 20  4  0
 18 23  1  0
 19 25  4  0
M  END
$$$$

 Created by Python create_sdf_string function

 25 28  0  0  0  0  0  0  0  0999 V2000
   13.1533   -5.2399   21.0682 C   0  0  0  0  0  0  0  0  0  0  0  0
   10.4729   -4.0295   17.6135 C   0  0  0  0  0  0  0  0  0  0  0  0
   10.4789   -4.3641   20.9564 C   0  0  0  0  0  0  0  0  0  0  0  0
    8.7421   -5.1412   16.3650 C   0  0  0  0  0  0  0  0  0  0  0  0
   11.4353   -2.9204   17.8044 C   0  0  0  0  0  0  0  0  0  0  0  0
   11.1529   -4.3028   22.1277 C   0  0  0  0  0  0  0  0  0  0  0  0
   11.1290   -4.8502   19.8052 C   0  0  0  0  0  0  0  0  0  0  0  0
   12.4329   -4.2159   24.4224 C   0  0  0  0  0  0  0  0  0  0  0  0
    3.4740   -9.0387   16.5022 C   0  0  0  0  0  0  0  0  0  0  0  0
    6.8384   -7.9290   17.5282 N   0  0  0  0  0  0  0  0  0  0  0  0
    9.4126   -5.9853   18.4899 C   0  0  0  0  0  0  0  0  0  0  0  0
    4.2064  -10.3242   18.3302 C   0  0  0  0  0  0  0  0  0  0  0  0
    9.6599   -4.1551   16.4796 N   0  0  0  0  0  0  0  0  0  0  0  0
    7.0644   -6.4612   15.7375 N   0  0  0  0  0  0  0  0  0  0  0  0
    5.3549   -9.6322   18.3190 C   0  0  0  0  0  0  0  0  0  0  0  0
   10.3704   -4.9638   18.6510 C   0  0  0  0  0  0  0  0  0  0  0  0
    5.5935   -8.6419   17.4234 C   0  0  0  0  0  0  0  0  0  0  0  0
   13.0726   -4.6648   23.3394 O   0  0  0  0  0  0  0  0  0  0  0  0
    8.5955   -6.0705   17.3996 C   0  0  0  0  0  0  0  0  0  0  0  0
    4.6223   -8.3832   16.5030 C   0  0  0  0  0  0  0  0  0  0  0  0
   12.4690   -5.2624   19.9024 C   0  0  0  0  0  0  0  0  0  0  0  0
    3.2548   -9.9919   17.4189 C   0  0  0  0  0  0  0  0  0  0  0  0
   12.4767   -4.7393   22.1790 C   0  0  0  0  0  0  0  0  0  0  0  0
    7.8593   -5.3772   15.3569 N   0  0  0  0  0  0  0  0  0  0  0  0
    7.4412   -6.9038   16.9283 C   0  0  0  0  0  0  0  0  0  0  0  0
  1 21  4  0
  1 23  4  0
  2  5  1  0
  2 13  4  0
  2 16  4  0
  3  6  4  0
  3  7  4  0
  4 13  4  0
  4 19  4  0
  4 24  4  0
  6 23  4  0
  7 16  1  0
  7 21  4  0
  8 18  1  0
  9 20  4  0
  9 22  4  0
 10 17  1  0
 10 25  1  0
 11 16  4  0
 11 19  4  0
 12 15  4  0
 12 22  4  0
 14 24  4  0
 14 25  4  0
 15 17  4  0
 17 20  4  0
 18 23  1  0
 19 25  4  0
M  END
$$$$

 Created by Python create_sdf_string function

 25 28  0  0  0  0  0  0  0  0999 V2000
   13.1533   -5.2399   21.0682 C   0  0  0  0  0  0  0  0  0  0  0  0
   10.4729   -4.0295   17.6135 C   0  0  0  0  0  0  0  0  0  0  0  0
   10.4789   -4.3641   20.9564 C   0  0  0  0  0  0  0  0  0  0  0  0
    8.7421   -5.1412   16.3650 C   0  0  0  0  0  0  0  0  0  0  0  0
   11.4353   -2.9204   17.8044 C   0  0  0  0  0  0  0  0  0  0  0  0
   11.1529   -4.3028   22.1277 C   0  0  0  0  0  0  0  0  0  0  0  0
   11.1290   -4.8502   19.8052 C   0  0  0  0  0  0  0  0  0  0  0  0
   12.4329   -4.2159   24.4224 C   0  0  0  0  0  0  0  0  0  0  0  0
    3.4740   -9.0387   16.5022 C   0  0  0  0  0  0  0  0  0  0  0  0
    6.8384   -7.9290   17.5282 N   0  0  0  0  0  0  0  0  0  0  0  0
    9.4126   -5.9853   18.4899 C   0  0  0  0  0  0  0  0  0  0  0  0
    4.2064  -10.3242   18.3302 C   0  0  0  0  0  0  0  0  0  0  0  0
    9.6599   -4.1551   16.4796 N   0  0  0  0  0  0  0  0  0  0  0  0
    7.0644   -6.4612   15.7375 N   0  0  0  0  0  0  0  0  0  0  0  0
    5.3549   -9.6322   18.3190 C   0  0  0  0  0  0  0  0  0  0  0  0
   10.3704   -4.9638   18.6510 C   0  0  0  0  0  0  0  0  0  0  0  0
    5.5935   -8.6419   17.4234 C   0  0  0  0  0  0  0  0  0  0  0  0
   13.0726   -4.6648   23.3394 O   0  0  0  0  0  0  0  0  0  0  0  0
    8.5955   -6.0705   17.3996 C   0  0  0  0  0  0  0  0  0  0  0  0
    4.6223   -8.3832   16.5030 C   0  0  0  0  0  0  0  0  0  0  0  0
   12.4690   -5.2624   19.9024 C   0  0  0  0  0  0  0  0  0  0  0  0
    3.2548   -9.9919   17.4189 C   0  0  0  0  0  0  0  0  0  0  0  0
   12.4767   -4.7393   22.1790 C   0  0  0  0  0  0  0  0  0  0  0  0
    7.8593   -5.3772   15.3569 N   0  0  0  0  0  0  0  0  0  0  0  0
    7.4412   -6.9038   16.9283 C   0  0  0  0  0  0  0  0  0  0  0  0
  1 21  4  0
  1 23  4  0
  2  5  1  0
  2 13  4  0
  2 16  4  0
  3  6  4  0
  3  7  4  0
  4 13  4  0
  4 19  4  0
  4 24  4  0
  6 23  4  0
  7 16  1  0
  7 21  4  0
  8 18  1  0
  9 20  4  0
  9 22  4  0
 10 17  1  0
 10 25  1  0
 11 16  4  0
 11 19  4  0
 12 15  4  0
 12 22  4  0
 14 24  4  0
 14 25  4  0
 15 17  4  0
 17 20  4  0
 18 23  1  0
 19 25  4  0
M  END
$$$$

 Created by Python create_sdf_string function

 25 28  0  0  0  0  0  0  0  0999 V2000
   13.1533   -5.2399   21.0682 C   0  0  0  0  0  0  0  0  0  0  0  0
   10.4729   -4.0295   17.6135 C   0  0  0  0  0  0  0  0  0  0  0  0
   10.4789   -4.3641   20.9564 C   0  0  0  0  0  0  0  0  0  0  0  0
    8.7421   -5.1412   16.3650 C   0  0  0  0  0  0  0  0  0  0  0  0
   11.4353   -2.9204   17.8044 C   0  0  0  0  0  0  0  0  0  0  0  0
   11.1529   -4.3028   22.1277 C   0  0  0  0  0  0  0  0  0  0  0  0
   11.1290   -4.8502   19.8052 C   0  0  0  0  0  0  0  0  0  0  0  0
   12.4329   -4.2159   24.4224 C   0  0  0  0  0  0  0  0  0  0  0  0
    3.4740   -9.0387   16.5022 C   0  0  0  0  0  0  0  0  0  0  0  0
    6.8384   -7.9290   17.5282 N   0  0  0  0  0  0  0  0  0  0  0  0
    9.4126   -5.9853   18.4899 C   0  0  0  0  0  0  0  0  0  0  0  0
    4.2064  -10.3242   18.3302 C   0  0  0  0  0  0  0  0  0  0  0  0
    9.6599   -4.1551   16.4796 N   0  0  0  0  0  0  0  0  0  0  0  0
    7.0644   -6.4612   15.7375 N   0  0  0  0  0  0  0  0  0  0  0  0
    5.3549   -9.6322   18.3190 C   0  0  0  0  0  0  0  0  0  0  0  0
   10.3704   -4.9638   18.6510 C   0  0  0  0  0  0  0  0  0  0  0  0
    5.5935   -8.6419   17.4234 C   0  0  0  0  0  0  0  0  0  0  0  0
   13.0726   -4.6648   23.3394 O   0  0  0  0  0  0  0  0  0  0  0  0
    8.5955   -6.0705   17.3996 C   0  0  0  0  0  0  0  0  0  0  0  0
    4.6223   -8.3832   16.5030 C   0  0  0  0  0  0  0  0  0  0  0  0
   12.4690   -5.2624   19.9024 C   0  0  0  0  0  0  0  0  0  0  0  0
    3.2548   -9.9919   17.4189 C   0  0  0  0  0  0  0  0  0  0  0  0
   12.4767   -4.7393   22.1790 C   0  0  0  0  0  0  0  0  0  0  0  0
    7.8593   -5.3772   15.3569 N   0  0  0  0  0  0  0  0  0  0  0  0
    7.4412   -6.9038   16.9283 C   0  0  0  0  0  0  0  0  0  0  0  0
  1 21  4  0
  1 23  4  0
  2  5  1  0
  2 13  4  0
  2 16  4  0
  3  6  4  0
  3  7  4  0
  4 13  4  0
  4 19  4  0
  4 24  4  0
  6 23  4  0
  7 16  1  0
  7 21  4  0
  8 18  1  0
  9 20  4  0
  9 22  4  0
 10 17  1  0
 10 25  1  0
 11 16  4  0
 11 19  4  0
 12 15  4  0
 12 22  4  0
 14 24  4  0
 14 25  4  0
 15 17  4  0
 17 20  4  0
 18 23  1  0
 19 25  4  0
M  END
$$$$

 Created by Python create_sdf_string function

 25 28  0  0  0  0  0  0  0  0999 V2000
   13.1533   -5.2399   21.0682 C   0  0  0  0  0  0  0  0  0  0  0  0
   10.4729   -4.0295   17.6135 C   0  0  0  0  0  0  0  0  0  0  0  0
   10.4789   -4.3641   20.9564 C   0  0  0  0  0  0  0  0  0  0  0  0
    8.7421   -5.1412   16.3650 C   0  0  0  0  0  0  0  0  0  0  0  0
   11.4353   -2.9204   17.8044 C   0  0  0  0  0  0  0  0  0  0  0  0
   11.1529   -4.3028   22.1277 C   0  0  0  0  0  0  0  0  0  0  0  0
   11.1290   -4.8502   19.8052 C   0  0  0  0  0  0  0  0  0  0  0  0
   12.4329   -4.2159   24.4224 C   0  0  0  0  0  0  0  0  0  0  0  0
    3.4740   -9.0387   16.5022 C   0  0  0  0  0  0  0  0  0  0  0  0
    6.8384   -7.9290   17.5282 N   0  0  0  0  0  0  0  0  0  0  0  0
    9.4126   -5.9853   18.4899 C   0  0  0  0  0  0  0  0  0  0  0  0
    4.2064  -10.3242   18.3302 C   0  0  0  0  0  0  0  0  0  0  0  0
    9.6599   -4.1551   16.4796 N   0  0  0  0  0  0  0  0  0  0  0  0
    7.0644   -6.4612   15.7375 N   0  0  0  0  0  0  0  0  0  0  0  0
    5.3549   -9.6322   18.3190 C   0  0  0  0  0  0  0  0  0  0  0  0
   10.3704   -4.9638   18.6510 C   0  0  0  0  0  0  0  0  0  0  0  0
    5.5935   -8.6419   17.4234 C   0  0  0  0  0  0  0  0  0  0  0  0
   13.0726   -4.6648   23.3394 O   0  0  0  0  0  0  0  0  0  0  0  0
    8.5955   -6.0705   17.3996 C   0  0  0  0  0  0  0  0  0  0  0  0
    4.6223   -8.3832   16.5030 C   0  0  0  0  0  0  0  0  0  0  0  0
   12.4690   -5.2624   19.9024 C   0  0  0  0  0  0  0  0  0  0  0  0
    3.2548   -9.9919   17.4189 C   0  0  0  0  0  0  0  0  0  0  0  0
   12.4767   -4.7393   22.1790 C   0  0  0  0  0  0  0  0  0  0  0  0
    7.8593   -5.3772   15.3569 N   0  0  0  0  0  0  0  0  0  0  0  0
    7.4412   -6.9038   16.9283 C   0  0  0  0  0  0  0  0  0  0  0  0
  1 21  4  0
  1 23  4  0
  2  5  1  0
  2 13  4  0
  2 16  4  0
  3  6  4  0
  3  7  4  0
  4 13  4  0
  4 19  4  0
  4 24  4  0
  6 23  4  0
  7 16  1  0
  7 21  4  0
  8 18  1  0
  9 20  4  0
  9 22  4  0
 10 17  1  0
 10 25  1  0
 11 16  4  0
 11 19  4  0
 12 15  4  0
 12 22  4  0
 14 24  4  0
 14 25  4  0
 15 17  4  0
 17 20  4  0
 18 23  1  0
 19 25  4  0
M  END
$$$$

 Created by Python create_sdf_string function

 25 28  0  0  0  0  0  0  0  0999 V2000
   13.1533   -5.2399   21.0682 C   0  0  0  0  0  0  0  0  0  0  0  0
   10.4729   -4.0295   17.6135 C   0  0  0  0  0  0  0  0  0  0  0  0
   10.4789   -4.3641   20.9564 C   0  0  0  0  0  0  0  0  0  0  0  0
    8.7421   -5.1412   16.3650 C   0  0  0  0  0  0  0  0  0  0  0  0
   11.4353   -2.9204   17.8044 C   0  0  0  0  0  0  0  0  0  0  0  0
   11.1529   -4.3028   22.1277 C   0  0  0  0  0  0  0  0  0  0  0  0
   11.1290   -4.8502   19.8052 C   0  0  0  0  0  0  0  0  0  0  0  0
   12.4329   -4.2159   24.4224 C   0  0  0  0  0  0  0  0  0  0  0  0
    3.4740   -9.0387   16.5022 C   0  0  0  0  0  0  0  0  0  0  0  0
    6.8384   -7.9290   17.5282 N   0  0  0  0  0  0  0  0  0  0  0  0
    9.4126   -5.9853   18.4899 C   0  0  0  0  0  0  0  0  0  0  0  0
    4.2064  -10.3242   18.3302 C   0  0  0  0  0  0  0  0  0  0  0  0
    9.6599   -4.1551   16.4796 N   0  0  0  0  0  0  0  0  0  0  0  0
    7.0644   -6.4612   15.7375 N   0  0  0  0  0  0  0  0  0  0  0  0
    5.3549   -9.6322   18.3190 C   0  0  0  0  0  0  0  0  0  0  0  0
   10.3704   -4.9638   18.6510 C   0  0  0  0  0  0  0  0  0  0  0  0
    5.5935   -8.6419   17.4234 C   0  0  0  0  0  0  0  0  0  0  0  0
   13.0726   -4.6648   23.3394 O   0  0  0  0  0  0  0  0  0  0  0  0
    8.5955   -6.0705   17.3996 C   0  0  0  0  0  0  0  0  0  0  0  0
    4.6223   -8.3832   16.5030 C   0  0  0  0  0  0  0  0  0  0  0  0
   12.4690   -5.2624   19.9024 C   0  0  0  0  0  0  0  0  0  0  0  0
    3.2548   -9.9919   17.4189 C   0  0  0  0  0  0  0  0  0  0  0  0
   12.4767   -4.7393   22.1790 C   0  0  0  0  0  0  0  0  0  0  0  0
    7.8593   -5.3772   15.3569 N   0  0  0  0  0  0  0  0  0  0  0  0
    7.4412   -6.9038   16.9283 C   0  0  0  0  0  0  0  0  0  0  0  0
  1 21  4  0
  1 23  4  0
  2  5  1  0
  2 13  4  0
  2 16  4  0
  3  6  4  0
  3  7  4  0
  4 13  4  0
  4 19  4  0
  4 24  4  0
  6 23  4  0
  7 16  1  0
  7 21  4  0
  8 18  1  0
  9 20  4  0
  9 22  4  0
 10 17  1  0
 10 25  1  0
 11 16  4  0
 11 19  4  0
 12 15  4  0
 12 22  4  0
 14 24  4  0
 14 25  4  0
 15 17  4  0
 17 20  4  0
 18 23  1  0
 19 25  4  0
M  END
$$$$

 Created by Python create_sdf_string function

 25 28  0  0  0  0  0  0  0  0999 V2000
   13.1533   -5.2399   21.0682 C   0  0  0  0  0  0  0  0  0  0  0  0
   10.4729   -4.0295   17.6135 C   0  0  0  0  0  0  0  0  0  0  0  0
   10.4789   -4.3641   20.9564 C   0  0  0  0  0  0  0  0  0  0  0  0
    8.7421   -5.1412   16.3650 C   0  0  0  0  0  0  0  0  0  0  0  0
   11.4353   -2.9204   17.8044 C   0  0  0  0  0  0  0  0  0  0  0  0
   11.1529   -4.3028   22.1277 C   0  0  0  0  0  0  0  0  0  0  0  0
   11.1290   -4.8502   19.8052 C   0  0  0  0  0  0  0  0  0  0  0  0
   12.4329   -4.2159   24.4224 C   0  0  0  0  0  0  0  0  0  0  0  0
    3.4740   -9.0387   16.5022 C   0  0  0  0  0  0  0  0  0  0  0  0
    6.8384   -7.9290   17.5282 N   0  0  0  0  0  0  0  0  0  0  0  0
    9.4126   -5.9853   18.4899 C   0  0  0  0  0  0  0  0  0  0  0  0
    4.2064  -10.3242   18.3302 C   0  0  0  0  0  0  0  0  0  0  0  0
    9.6599   -4.1551   16.4796 N   0  0  0  0  0  0  0  0  0  0  0  0
    7.0644   -6.4612   15.7375 N   0  0  0  0  0  0  0  0  0  0  0  0
    5.3549   -9.6322   18.3190 C   0  0  0  0  0  0  0  0  0  0  0  0
   10.3704   -4.9638   18.6510 C   0  0  0  0  0  0  0  0  0  0  0  0
    5.5935   -8.6419   17.4234 C   0  0  0  0  0  0  0  0  0  0  0  0
   13.0726   -4.6648   23.3394 O   0  0  0  0  0  0  0  0  0  0  0  0
    8.5955   -6.0705   17.3996 C   0  0  0  0  0  0  0  0  0  0  0  0
    4.6223   -8.3832   16.5030 C   0  0  0  0  0  0  0  0  0  0  0  0
   12.4690   -5.2624   19.9024 C   0  0  0  0  0  0  0  0  0  0  0  0
    3.2548   -9.9919   17.4189 C   0  0  0  0  0  0  0  0  0  0  0  0
   12.4767   -4.7393   22.1790 C   0  0  0  0  0  0  0  0  0  0  0  0
    7.8593   -5.3772   15.3569 N   0  0  0  0  0  0  0  0  0  0  0  0
    7.4412   -6.9038   16.9283 C   0  0  0  0  0  0  0  0  0  0  0  0
  1 21  4  0
  1 23  4  0
  2  5  1  0
  2 13  4  0
  2 16  4  0
  3  6  4  0
  3  7  4  0
  4 13  4  0
  4 19  4  0
  4 24  4  0
  6 23  4  0
  7 16  1  0
  7 21  4  0
  8 18  1  0
  9 20  4  0
  9 22  4  0
 10 17  1  0
 10 25  1  0
 11 16  4  0
 11 19  4  0
 12 15  4  0
 12 22  4  0
 14 24  4  0
 14 25  4  0
 15 17  4  0
 17 20  4  0
 18 23  1  0
 19 25  4  0
M  END
$$$$

 Created by Python create_sdf_string function

 25 28  0  0  0  0  0  0  0  0999 V2000
   13.1533   -5.2399   21.0682 C   0  0  0  0  0  0  0  0  0  0  0  0
   10.4729   -4.0295   17.6135 C   0  0  0  0  0  0  0  0  0  0  0  0
   10.4789   -4.3641   20.9564 C   0  0  0  0  0  0  0  0  0  0  0  0
    8.7421   -5.1412   16.3650 C   0  0  0  0  0  0  0  0  0  0  0  0
   11.4353   -2.9204   17.8044 C   0  0  0  0  0  0  0  0  0  0  0  0
   11.1529   -4.3028   22.1277 C   0  0  0  0  0  0  0  0  0  0  0  0
   11.1290   -4.8502   19.8052 C   0  0  0  0  0  0  0  0  0  0  0  0
   12.4329   -4.2159   24.4224 C   0  0  0  0  0  0  0  0  0  0  0  0
    3.4740   -9.0387   16.5022 C   0  0  0  0  0  0  0  0  0  0  0  0
    6.8384   -7.9290   17.5282 N   0  0  0  0  0  0  0  0  0  0  0  0
    9.4126   -5.9853   18.4899 C   0  0  0  0  0  0  0  0  0  0  0  0
    4.2064  -10.3242   18.3302 C   0  0  0  0  0  0  0  0  0  0  0  0
    9.6599   -4.1551   16.4796 N   0  0  0  0  0  0  0  0  0  0  0  0
    7.0644   -6.4612   15.7375 N   0  0  0  0  0  0  0  0  0  0  0  0
    5.3549   -9.6322   18.3190 C   0  0  0  0  0  0  0  0  0  0  0  0
   10.3704   -4.9638   18.6510 C   0  0  0  0  0  0  0  0  0  0  0  0
    5.5935   -8.6419   17.4234 C   0  0  0  0  0  0  0  0  0  0  0  0
   13.0726   -4.6648   23.3394 O   0  0  0  0  0  0  0  0  0  0  0  0
    8.5955   -6.0705   17.3996 C   0  0  0  0  0  0  0  0  0  0  0  0
    4.6223   -8.3832   16.5030 C   0  0  0  0  0  0  0  0  0  0  0  0
   12.4690   -5.2624   19.9024 C   0  0  0  0  0  0  0  0  0  0  0  0
    3.2548   -9.9919   17.4189 C   0  0  0  0  0  0  0  0  0  0  0  0
   12.4767   -4.7393   22.1790 C   0  0  0  0  0  0  0  0  0  0  0  0
    7.8593   -5.3772   15.3569 N   0  0  0  0  0  0  0  0  0  0  0  0
    7.4412   -6.9038   16.9283 C   0  0  0  0  0  0  0  0  0  0  0  0
  1 21  4  0
  1 23  4  0
  2  5  1  0
  2 13  4  0
  2 16  4  0
  3  6  4  0
  3  7  4  0
  4 13  4  0
  4 19  4  0
  4 24  4  0
  6 23  4  0
  7 16  1  0
  7 21  4  0
  8 18  1  0
  9 20  4  0
  9 22  4  0
 10 17  1  0
 10 25  1  0
 11 16  4  0
 11 19  4  0
 12 15  4  0
 12 22  4  0
 14 24  4  0
 14 25  4  0
 15 17  4  0
 17 20  4  0
 18 23  1  0
 19 25  4  0
M  END
$$$$

 Created by Python create_sdf_string function

 25 28  0  0  0  0  0  0  0  0999 V2000
   13.1533   -5.2399   21.0682 C   0  0  0  0  0  0  0  0  0  0  0  0
   10.4729   -4.0295   17.6135 C   0  0  0  0  0  0  0  0  0  0  0  0
   10.4789   -4.3641   20.9564 C   0  0  0  0  0  0  0  0  0  0  0  0
    8.7421   -5.1412   16.3650 C   0  0  0  0  0  0  0  0  0  0  0  0
   11.4353   -2.9204   17.8044 C   0  0  0  0  0  0  0  0  0  0  0  0
   11.1529   -4.3028   22.1277 C   0  0  0  0  0  0  0  0  0  0  0  0
   11.1290   -4.8502   19.8052 C   0  0  0  0  0  0  0  0  0  0  0  0
   12.4329   -4.2159   24.4224 C   0  0  0  0  0  0  0  0  0  0  0  0
    3.4740   -9.0387   16.5022 C   0  0  0  0  0  0  0  0  0  0  0  0
    6.8384   -7.9290   17.5282 N   0  0  0  0  0  0  0  0  0  0  0  0
    9.4126   -5.9853   18.4899 C   0  0  0  0  0  0  0  0  0  0  0  0
    4.2064  -10.3242   18.3302 C   0  0  0  0  0  0  0  0  0  0  0  0
    9.6599   -4.1551   16.4796 N   0  0  0  0  0  0  0  0  0  0  0  0
    7.0644   -6.4612   15.7375 N   0  0  0  0  0  0  0  0  0  0  0  0
    5.3549   -9.6322   18.3190 C   0  0  0  0  0  0  0  0  0  0  0  0
   10.3704   -4.9638   18.6510 C   0  0  0  0  0  0  0  0  0  0  0  0
    5.5935   -8.6419   17.4234 C   0  0  0  0  0  0  0  0  0  0  0  0
   13.0726   -4.6648   23.3394 O   0  0  0  0  0  0  0  0  0  0  0  0
    8.5955   -6.0705   17.3996 C   0  0  0  0  0  0  0  0  0  0  0  0
    4.6223   -8.3832   16.5030 C   0  0  0  0  0  0  0  0  0  0  0  0
   12.4690   -5.2624   19.9024 C   0  0  0  0  0  0  0  0  0  0  0  0
    3.2548   -9.9919   17.4189 C   0  0  0  0  0  0  0  0  0  0  0  0
   12.4767   -4.7393   22.1790 C   0  0  0  0  0  0  0  0  0  0  0  0
    7.8593   -5.3772   15.3569 N   0  0  0  0  0  0  0  0  0  0  0  0
    7.4412   -6.9038   16.9283 C   0  0  0  0  0  0  0  0  0  0  0  0
  1 21  4  0
  1 23  4  0
  2  5  1  0
  2 13  4  0
  2 16  4  0
  3  6  4  0
  3  7  4  0
  4 13  4  0
  4 19  4  0
  4 24  4  0
  6 23  4  0
  7 16  1  0
  7 21  4  0
  8 18  1  0
  9 20  4  0
  9 22  4  0
 10 17  1  0
 10 25  1  0
 11 16  4  0
 11 19  4  0
 12 15  4  0
 12 22  4  0
 14 24  4  0
 14 25  4  0
 15 17  4  0
 17 20  4  0
 18 23  1  0
 19 25  4  0
M  END
$$$$

 Created by Python create_sdf_string function

 25 28  0  0  0  0  0  0  0  0999 V2000
   13.1533   -5.2399   21.0682 C   0  0  0  0  0  0  0  0  0  0  0  0
   10.4729   -4.0295   17.6135 C   0  0  0  0  0  0  0  0  0  0  0  0
   10.4789   -4.3641   20.9564 C   0  0  0  0  0  0  0  0  0  0  0  0
    8.7421   -5.1412   16.3650 C   0  0  0  0  0  0  0  0  0  0  0  0
   11.4353   -2.9204   17.8044 C   0  0  0  0  0  0  0  0  0  0  0  0
   11.1529   -4.3028   22.1277 C   0  0  0  0  0  0  0  0  0  0  0  0
   11.1290   -4.8502   19.8052 C   0  0  0  0  0  0  0  0  0  0  0  0
   12.4329   -4.2159   24.4224 C   0  0  0  0  0  0  0  0  0  0  0  0
    3.4740   -9.0387   16.5022 C   0  0  0  0  0  0  0  0  0  0  0  0
    6.8384   -7.9290   17.5282 N   0  0  0  0  0  0  0  0  0  0  0  0
    9.4126   -5.9853   18.4899 C   0  0  0  0  0  0  0  0  0  0  0  0
    4.2064  -10.3242   18.3302 C   0  0  0  0  0  0  0  0  0  0  0  0
    9.6599   -4.1551   16.4796 N   0  0  0  0  0  0  0  0  0  0  0  0
    7.0644   -6.4612   15.7375 N   0  0  0  0  0  0  0  0  0  0  0  0
    5.3549   -9.6322   18.3190 C   0  0  0  0  0  0  0  0  0  0  0  0
   10.3704   -4.9638   18.6510 C   0  0  0  0  0  0  0  0  0  0  0  0
    5.5935   -8.6419   17.4234 C   0  0  0  0  0  0  0  0  0  0  0  0
   13.0726   -4.6648   23.3394 O   0  0  0  0  0  0  0  0  0  0  0  0
    8.5955   -6.0705   17.3996 C   0  0  0  0  0  0  0  0  0  0  0  0
    4.6223   -8.3832   16.5030 C   0  0  0  0  0  0  0  0  0  0  0  0
   12.4690   -5.2624   19.9024 C   0  0  0  0  0  0  0  0  0  0  0  0
    3.2548   -9.9919   17.4189 C   0  0  0  0  0  0  0  0  0  0  0  0
   12.4767   -4.7393   22.1790 C   0  0  0  0  0  0  0  0  0  0  0  0
    7.8593   -5.3772   15.3569 N   0  0  0  0  0  0  0  0  0  0  0  0
    7.4412   -6.9038   16.9283 C   0  0  0  0  0  0  0  0  0  0  0  0
  1 21  4  0
  1 23  4  0
  2  5  1  0
  2 13  4  0
  2 16  4  0
  3  6  4  0
  3  7  4  0
  4 13  4  0
  4 19  4  0
  4 24  4  0
  6 23  4  0
  7 16  1  0
  7 21  4  0
  8 18  1  0
  9 20  4  0
  9 22  4  0
 10 17  1  0
 10 25  1  0
 11 16  4  0
 11 19  4  0
 12 15  4  0
 12 22  4  0
 14 24  4  0
 14 25  4  0
 15 17  4  0
 17 20  4  0
 18 23  1  0
 19 25  4  0
M  END
$$$$

 Created by Python create_sdf_string function

 25 28  0  0  0  0  0  0  0  0999 V2000
   13.1533   -5.2399   21.0682 C   0  0  0  0  0  0  0  0  0  0  0  0
   10.4729   -4.0295   17.6135 C   0  0  0  0  0  0  0  0  0  0  0  0
   10.4789   -4.3641   20.9564 C   0  0  0  0  0  0  0  0  0  0  0  0
    8.7421   -5.1412   16.3650 C   0  0  0  0  0  0  0  0  0  0  0  0
   11.4353   -2.9204   17.8044 C   0  0  0  0  0  0  0  0  0  0  0  0
   11.1529   -4.3028   22.1277 C   0  0  0  0  0  0  0  0  0  0  0  0
   11.1290   -4.8502   19.8052 C   0  0  0  0  0  0  0  0  0  0  0  0
   12.4329   -4.2159   24.4224 C   0  0  0  0  0  0  0  0  0  0  0  0
    3.4740   -9.0387   16.5022 C   0  0  0  0  0  0  0  0  0  0  0  0
    6.8384   -7.9290   17.5282 N   0  0  0  0  0  0  0  0  0  0  0  0
    9.4126   -5.9853   18.4899 C   0  0  0  0  0  0  0  0  0  0  0  0
    4.2064  -10.3242   18.3302 C   0  0  0  0  0  0  0  0  0  0  0  0
    9.6599   -4.1551   16.4796 N   0  0  0  0  0  0  0  0  0  0  0  0
    7.0644   -6.4612   15.7375 N   0  0  0  0  0  0  0  0  0  0  0  0
    5.3549   -9.6322   18.3190 C   0  0  0  0  0  0  0  0  0  0  0  0
   10.3704   -4.9638   18.6510 C   0  0  0  0  0  0  0  0  0  0  0  0
    5.5935   -8.6419   17.4234 C   0  0  0  0  0  0  0  0  0  0  0  0
   13.0726   -4.6648   23.3394 O   0  0  0  0  0  0  0  0  0  0  0  0
    8.5955   -6.0705   17.3996 C   0  0  0  0  0  0  0  0  0  0  0  0
    4.6223   -8.3832   16.5030 C   0  0  0  0  0  0  0  0  0  0  0  0
   12.4690   -5.2624   19.9024 C   0  0  0  0  0  0  0  0  0  0  0  0
    3.2548   -9.9919   17.4189 C   0  0  0  0  0  0  0  0  0  0  0  0
   12.4767   -4.7393   22.1790 C   0  0  0  0  0  0  0  0  0  0  0  0
    7.8593   -5.3772   15.3569 N   0  0  0  0  0  0  0  0  0  0  0  0
    7.4412   -6.9038   16.9283 C   0  0  0  0  0  0  0  0  0  0  0  0
  1 21  4  0
  1 23  4  0
  2  5  1  0
  2 13  4  0
  2 16  4  0
  3  6  4  0
  3  7  4  0
  4 13  4  0
  4 19  4  0
  4 24  4  0
  6 23  4  0
  7 16  1  0
  7 21  4  0
  8 18  1  0
  9 20  4  0
  9 22  4  0
 10 17  1  0
 10 25  1  0
 11 16  4  0
 11 19  4  0
 12 15  4  0
 12 22  4  0
 14 24  4  0
 14 25  4  0
 15 17  4  0
 17 20  4  0
 18 23  1  0
 19 25  4  0
M  END
$$$$

 Created by Python create_sdf_string function

 25 28  0  0  0  0  0  0  0  0999 V2000
   13.1533   -5.2399   21.0682 C   0  0  0  0  0  0  0  0  0  0  0  0
   10.4729   -4.0295   17.6135 C   0  0  0  0  0  0  0  0  0  0  0  0
   10.4789   -4.3641   20.9564 C   0  0  0  0  0  0  0  0  0  0  0  0
    8.7421   -5.1412   16.3650 C   0  0  0  0  0  0  0  0  0  0  0  0
   11.4353   -2.9204   17.8044 C   0  0  0  0  0  0  0  0  0  0  0  0
   11.1529   -4.3028   22.1277 C   0  0  0  0  0  0  0  0  0  0  0  0
   11.1290   -4.8502   19.8052 C   0  0  0  0  0  0  0  0  0  0  0  0
   12.4329   -4.2159   24.4224 C   0  0  0  0  0  0  0  0  0  0  0  0
    3.4740   -9.0387   16.5022 C   0  0  0  0  0  0  0  0  0  0  0  0
    6.8384   -7.9290   17.5282 N   0  0  0  0  0  0  0  0  0  0  0  0
    9.4126   -5.9853   18.4899 C   0  0  0  0  0  0  0  0  0  0  0  0
    4.2064  -10.3242   18.3302 C   0  0  0  0  0  0  0  0  0  0  0  0
    9.6599   -4.1551   16.4796 N   0  0  0  0  0  0  0  0  0  0  0  0
    7.0644   -6.4612   15.7375 N   0  0  0  0  0  0  0  0  0  0  0  0
    5.3549   -9.6322   18.3190 C   0  0  0  0  0  0  0  0  0  0  0  0
   10.3704   -4.9638   18.6510 C   0  0  0  0  0  0  0  0  0  0  0  0
    5.5935   -8.6419   17.4234 C   0  0  0  0  0  0  0  0  0  0  0  0
   13.0726   -4.6648   23.3394 O   0  0  0  0  0  0  0  0  0  0  0  0
    8.5955   -6.0705   17.3996 C   0  0  0  0  0  0  0  0  0  0  0  0
    4.6223   -8.3832   16.5030 C   0  0  0  0  0  0  0  0  0  0  0  0
   12.4690   -5.2624   19.9024 C   0  0  0  0  0  0  0  0  0  0  0  0
    3.2548   -9.9919   17.4189 C   0  0  0  0  0  0  0  0  0  0  0  0
   12.4767   -4.7393   22.1790 C   0  0  0  0  0  0  0  0  0  0  0  0
    7.8593   -5.3772   15.3569 N   0  0  0  0  0  0  0  0  0  0  0  0
    7.4412   -6.9038   16.9283 C   0  0  0  0  0  0  0  0  0  0  0  0
  1 21  4  0
  1 23  4  0
  2  5  1  0
  2 13  4  0
  2 16  4  0
  3  6  4  0
  3  7  4  0
  4 13  4  0
  4 19  4  0
  4 24  4  0
  6 23  4  0
  7 16  1  0
  7 21  4  0
  8 18  1  0
  9 20  4  0
  9 22  4  0
 10 17  1  0
 10 25  1  0
 11 16  4  0
 11 19  4  0
 12 15  4  0
 12 22  4  0
 14 24  4  0
 14 25  4  0
 15 17  4  0
 17 20  4  0
 18 23  1  0
 19 25  4  0
M  END
$$$$

 Created by Python create_sdf_string function

 25 28  0  0  0  0  0  0  0  0999 V2000
   13.1533   -5.2399   21.0682 C   0  0  0  0  0  0  0  0  0  0  0  0
   10.4729   -4.0295   17.6135 C   0  0  0  0  0  0  0  0  0  0  0  0
   10.4789   -4.3641   20.9564 C   0  0  0  0  0  0  0  0  0  0  0  0
    8.7421   -5.1412   16.3650 C   0  0  0  0  0  0  0  0  0  0  0  0
   11.4353   -2.9204   17.8044 C   0  0  0  0  0  0  0  0  0  0  0  0
   11.1529   -4.3028   22.1277 C   0  0  0  0  0  0  0  0  0  0  0  0
   11.1290   -4.8502   19.8052 C   0  0  0  0  0  0  0  0  0  0  0  0
   12.4329   -4.2159   24.4224 C   0  0  0  0  0  0  0  0  0  0  0  0
    3.4740   -9.0387   16.5022 C   0  0  0  0  0  0  0  0  0  0  0  0
    6.8384   -7.9290   17.5282 N   0  0  0  0  0  0  0  0  0  0  0  0
    9.4126   -5.9853   18.4899 C   0  0  0  0  0  0  0  0  0  0  0  0
    4.2064  -10.3242   18.3302 C   0  0  0  0  0  0  0  0  0  0  0  0
    9.6599   -4.1551   16.4796 N   0  0  0  0  0  0  0  0  0  0  0  0
    7.0644   -6.4612   15.7375 N   0  0  0  0  0  0  0  0  0  0  0  0
    5.3549   -9.6322   18.3190 C   0  0  0  0  0  0  0  0  0  0  0  0
   10.3704   -4.9638   18.6510 C   0  0  0  0  0  0  0  0  0  0  0  0
    5.5935   -8.6419   17.4234 C   0  0  0  0  0  0  0  0  0  0  0  0
   13.0726   -4.6648   23.3394 O   0  0  0  0  0  0  0  0  0  0  0  0
    8.5955   -6.0705   17.3996 C   0  0  0  0  0  0  0  0  0  0  0  0
    4.6223   -8.3832   16.5030 C   0  0  0  0  0  0  0  0  0  0  0  0
   12.4690   -5.2624   19.9024 C   0  0  0  0  0  0  0  0  0  0  0  0
    3.2548   -9.9919   17.4189 C   0  0  0  0  0  0  0  0  0  0  0  0
   12.4767   -4.7393   22.1790 C   0  0  0  0  0  0  0  0  0  0  0  0
    7.8593   -5.3772   15.3569 N   0  0  0  0  0  0  0  0  0  0  0  0
    7.4412   -6.9038   16.9283 C   0  0  0  0  0  0  0  0  0  0  0  0
  1 21  4  0
  1 23  4  0
  2  5  1  0
  2 13  4  0
  2 16  4  0
  3  6  4  0
  3  7  4  0
  4 13  4  0
  4 19  4  0
  4 24  4  0
  6 23  4  0
  7 16  1  0
  7 21  4  0
  8 18  1  0
  9 20  4  0
  9 22  4  0
 10 17  1  0
 10 25  1  0
 11 16  4  0
 11 19  4  0
 12 15  4  0
 12 22  4  0
 14 24  4  0
 14 25  4  0
 15 17  4  0
 17 20  4  0
 18 23  1  0
 19 25  4  0
M  END
$$$$

 Created by Python create_sdf_string function

 25 28  0  0  0  0  0  0  0  0999 V2000
   13.1533   -5.2399   21.0682 C   0  0  0  0  0  0  0  0  0  0  0  0
   10.4729   -4.0295   17.6135 C   0  0  0  0  0  0  0  0  0  0  0  0
   10.4789   -4.3641   20.9564 C   0  0  0  0  0  0  0  0  0  0  0  0
    8.7421   -5.1412   16.3650 C   0  0  0  0  0  0  0  0  0  0  0  0
   11.4353   -2.9204   17.8044 C   0  0  0  0  0  0  0  0  0  0  0  0
   11.1529   -4.3028   22.1277 C   0  0  0  0  0  0  0  0  0  0  0  0
   11.1290   -4.8502   19.8052 C   0  0  0  0  0  0  0  0  0  0  0  0
   12.4329   -4.2159   24.4224 C   0  0  0  0  0  0  0  0  0  0  0  0
    3.4740   -9.0387   16.5022 C   0  0  0  0  0  0  0  0  0  0  0  0
    6.8384   -7.9290   17.5282 N   0  0  0  0  0  0  0  0  0  0  0  0
    9.4126   -5.9853   18.4899 C   0  0  0  0  0  0  0  0  0  0  0  0
    4.2064  -10.3242   18.3302 C   0  0  0  0  0  0  0  0  0  0  0  0
    9.6599   -4.1551   16.4796 N   0  0  0  0  0  0  0  0  0  0  0  0
    7.0644   -6.4612   15.7375 N   0  0  0  0  0  0  0  0  0  0  0  0
    5.3549   -9.6322   18.3190 C   0  0  0  0  0  0  0  0  0  0  0  0
   10.3704   -4.9638   18.6510 C   0  0  0  0  0  0  0  0  0  0  0  0
    5.5935   -8.6419   17.4234 C   0  0  0  0  0  0  0  0  0  0  0  0
   13.0726   -4.6648   23.3394 O   0  0  0  0  0  0  0  0  0  0  0  0
    8.5955   -6.0705   17.3996 C   0  0  0  0  0  0  0  0  0  0  0  0
    4.6223   -8.3832   16.5030 C   0  0  0  0  0  0  0  0  0  0  0  0
   12.4690   -5.2624   19.9024 C   0  0  0  0  0  0  0  0  0  0  0  0
    3.2548   -9.9919   17.4189 C   0  0  0  0  0  0  0  0  0  0  0  0
   12.4767   -4.7393   22.1790 C   0  0  0  0  0  0  0  0  0  0  0  0
    7.8593   -5.3772   15.3569 N   0  0  0  0  0  0  0  0  0  0  0  0
    7.4412   -6.9038   16.9283 C   0  0  0  0  0  0  0  0  0  0  0  0
  1 21  4  0
  1 23  4  0
  2  5  1  0
  2 13  4  0
  2 16  4  0
  3  6  4  0
  3  7  4  0
  4 13  4  0
  4 19  4  0
  4 24  4  0
  6 23  4  0
  7 16  1  0
  7 21  4  0
  8 18  1  0
  9 20  4  0
  9 22  4  0
 10 17  1  0
 10 25  1  0
 11 16  4  0
 11 19  4  0
 12 15  4  0
 12 22  4  0
 14 24  4  0
 14 25  4  0
 15 17  4  0
 17 20  4  0
 18 23  1  0
 19 25  4  0
M  END
$$$$

 Created by Python create_sdf_string function

 25 28  0  0  0  0  0  0  0  0999 V2000
   13.1533   -5.2399   21.0682 C   0  0  0  0  0  0  0  0  0  0  0  0
   10.4729   -4.0295   17.6135 C   0  0  0  0  0  0  0  0  0  0  0  0
   10.4789   -4.3641   20.9564 C   0  0  0  0  0  0  0  0  0  0  0  0
    8.7421   -5.1412   16.3650 C   0  0  0  0  0  0  0  0  0  0  0  0
   11.4353   -2.9204   17.8044 C   0  0  0  0  0  0  0  0  0  0  0  0
   11.1529   -4.3028   22.1277 C   0  0  0  0  0  0  0  0  0  0  0  0
   11.1290   -4.8502   19.8052 C   0  0  0  0  0  0  0  0  0  0  0  0
   12.4329   -4.2159   24.4224 C   0  0  0  0  0  0  0  0  0  0  0  0
    3.4740   -9.0387   16.5022 C   0  0  0  0  0  0  0  0  0  0  0  0
    6.8384   -7.9290   17.5282 N   0  0  0  0  0  0  0  0  0  0  0  0
    9.4126   -5.9853   18.4899 C   0  0  0  0  0  0  0  0  0  0  0  0
    4.2064  -10.3242   18.3302 C   0  0  0  0  0  0  0  0  0  0  0  0
    9.6599   -4.1551   16.4796 N   0  0  0  0  0  0  0  0  0  0  0  0
    7.0644   -6.4612   15.7375 N   0  0  0  0  0  0  0  0  0  0  0  0
    5.3549   -9.6322   18.3190 C   0  0  0  0  0  0  0  0  0  0  0  0
   10.3704   -4.9638   18.6510 C   0  0  0  0  0  0  0  0  0  0  0  0
    5.5935   -8.6419   17.4234 C   0  0  0  0  0  0  0  0  0  0  0  0
   13.0726   -4.6648   23.3394 O   0  0  0  0  0  0  0  0  0  0  0  0
    8.5955   -6.0705   17.3996 C   0  0  0  0  0  0  0  0  0  0  0  0
    4.6223   -8.3832   16.5030 C   0  0  0  0  0  0  0  0  0  0  0  0
   12.4690   -5.2624   19.9024 C   0  0  0  0  0  0  0  0  0  0  0  0
    3.2548   -9.9919   17.4189 C   0  0  0  0  0  0  0  0  0  0  0  0
   12.4767   -4.7393   22.1790 C   0  0  0  0  0  0  0  0  0  0  0  0
    7.8593   -5.3772   15.3569 N   0  0  0  0  0  0  0  0  0  0  0  0
    7.4412   -6.9038   16.9283 C   0  0  0  0  0  0  0  0  0  0  0  0
  1 21  4  0
  1 23  4  0
  2  5  1  0
  2 13  4  0
  2 16  4  0
  3  6  4  0
  3  7  4  0
  4 13  4  0
  4 19  4  0
  4 24  4  0
  6 23  4  0
  7 16  1  0
  7 21  4  0
  8 18  1  0
  9 20  4  0
  9 22  4  0
 10 17  1  0
 10 25  1  0
 11 16  4  0
 11 19  4  0
 12 15  4  0
 12 22  4  0
 14 24  4  0
 14 25  4  0
 15 17  4  0
 17 20  4  0
 18 23  1  0
 19 25  4  0
M  END
$$$$

 Created by Python create_sdf_string function

 25 28  0  0  0  0  0  0  0  0999 V2000
   13.1533   -5.2399   21.0682 C   0  0  0  0  0  0  0  0  0  0  0  0
   10.4729   -4.0295   17.6135 C   0  0  0  0  0  0  0  0  0  0  0  0
   10.4789   -4.3641   20.9564 C   0  0  0  0  0  0  0  0  0  0  0  0
    8.7421   -5.1412   16.3650 C   0  0  0  0  0  0  0  0  0  0  0  0
   11.4353   -2.9204   17.8044 C   0  0  0  0  0  0  0  0  0  0  0  0
   11.1529   -4.3028   22.1277 C   0  0  0  0  0  0  0  0  0  0  0  0
   11.1290   -4.8502   19.8052 C   0  0  0  0  0  0  0  0  0  0  0  0
   12.4329   -4.2159   24.4224 C   0  0  0  0  0  0  0  0  0  0  0  0
    3.4740   -9.0387   16.5022 C   0  0  0  0  0  0  0  0  0  0  0  0
    6.8384   -7.9290   17.5282 N   0  0  0  0  0  0  0  0  0  0  0  0
    9.4126   -5.9853   18.4899 C   0  0  0  0  0  0  0  0  0  0  0  0
    4.2064  -10.3242   18.3302 C   0  0  0  0  0  0  0  0  0  0  0  0
    9.6599   -4.1551   16.4796 N   0  0  0  0  0  0  0  0  0  0  0  0
    7.0644   -6.4612   15.7375 N   0  0  0  0  0  0  0  0  0  0  0  0
    5.3549   -9.6322   18.3190 C   0  0  0  0  0  0  0  0  0  0  0  0
   10.3704   -4.9638   18.6510 C   0  0  0  0  0  0  0  0  0  0  0  0
    5.5935   -8.6419   17.4234 C   0  0  0  0  0  0  0  0  0  0  0  0
   13.0726   -4.6648   23.3394 O   0  0  0  0  0  0  0  0  0  0  0  0
    8.5955   -6.0705   17.3996 C   0  0  0  0  0  0  0  0  0  0  0  0
    4.6223   -8.3832   16.5030 C   0  0  0  0  0  0  0  0  0  0  0  0
   12.4690   -5.2624   19.9024 C   0  0  0  0  0  0  0  0  0  0  0  0
    3.2548   -9.9919   17.4189 C   0  0  0  0  0  0  0  0  0  0  0  0
   12.4767   -4.7393   22.1790 C   0  0  0  0  0  0  0  0  0  0  0  0
    7.8593   -5.3772   15.3569 N   0  0  0  0  0  0  0  0  0  0  0  0
    7.4412   -6.9038   16.9283 C   0  0  0  0  0  0  0  0  0  0  0  0
  1 21  4  0
  1 23  4  0
  2  5  1  0
  2 13  4  0
  2 16  4  0
  3  6  4  0
  3  7  4  0
  4 13  4  0
  4 19  4  0
  4 24  4  0
  6 23  4  0
  7 16  1  0
  7 21  4  0
  8 18  1  0
  9 20  4  0
  9 22  4  0
 10 17  1  0
 10 25  1  0
 11 16  4  0
 11 19  4  0
 12 15  4  0
 12 22  4  0
 14 24  4  0
 14 25  4  0
 15 17  4  0
 17 20  4  0
 18 23  1  0
 19 25  4  0
M  END
$$$$

 Created by Python create_sdf_string function

 25 28  0  0  0  0  0  0  0  0999 V2000
   13.1533   -5.2399   21.0682 C   0  0  0  0  0  0  0  0  0  0  0  0
   10.4729   -4.0295   17.6135 C   0  0  0  0  0  0  0  0  0  0  0  0
   10.4789   -4.3641   20.9564 C   0  0  0  0  0  0  0  0  0  0  0  0
    8.7421   -5.1412   16.3650 C   0  0  0  0  0  0  0  0  0  0  0  0
   11.4353   -2.9204   17.8044 C   0  0  0  0  0  0  0  0  0  0  0  0
   11.1529   -4.3028   22.1277 C   0  0  0  0  0  0  0  0  0  0  0  0
   11.1290   -4.8502   19.8052 C   0  0  0  0  0  0  0  0  0  0  0  0
   12.4329   -4.2159   24.4224 C   0  0  0  0  0  0  0  0  0  0  0  0
    3.4740   -9.0387   16.5022 C   0  0  0  0  0  0  0  0  0  0  0  0
    6.8384   -7.9290   17.5282 N   0  0  0  0  0  0  0  0  0  0  0  0
    9.4126   -5.9853   18.4899 C   0  0  0  0  0  0  0  0  0  0  0  0
    4.2064  -10.3242   18.3302 C   0  0  0  0  0  0  0  0  0  0  0  0
    9.6599   -4.1551   16.4796 N   0  0  0  0  0  0  0  0  0  0  0  0
    7.0644   -6.4612   15.7375 N   0  0  0  0  0  0  0  0  0  0  0  0
    5.3549   -9.6322   18.3190 C   0  0  0  0  0  0  0  0  0  0  0  0
   10.3704   -4.9638   18.6510 C   0  0  0  0  0  0  0  0  0  0  0  0
    5.5935   -8.6419   17.4234 C   0  0  0  0  0  0  0  0  0  0  0  0
   13.0726   -4.6648   23.3394 O   0  0  0  0  0  0  0  0  0  0  0  0
    8.5955   -6.0705   17.3996 C   0  0  0  0  0  0  0  0  0  0  0  0
    4.6223   -8.3832   16.5030 C   0  0  0  0  0  0  0  0  0  0  0  0
   12.4690   -5.2624   19.9024 C   0  0  0  0  0  0  0  0  0  0  0  0
    3.2548   -9.9919   17.4189 C   0  0  0  0  0  0  0  0  0  0  0  0
   12.4767   -4.7393   22.1790 C   0  0  0  0  0  0  0  0  0  0  0  0
    7.8593   -5.3772   15.3569 N   0  0  0  0  0  0  0  0  0  0  0  0
    7.4412   -6.9038   16.9283 C   0  0  0  0  0  0  0  0  0  0  0  0
  1 21  4  0
  1 23  4  0
  2  5  1  0
  2 13  4  0
  2 16  4  0
  3  6  4  0
  3  7  4  0
  4 13  4  0
  4 19  4  0
  4 24  4  0
  6 23  4  0
  7 16  1  0
  7 21  4  0
  8 18  1  0
  9 20  4  0
  9 22  4  0
 10 17  1  0
 10 25  1  0
 11 16  4  0
 11 19  4  0
 12 15  4  0
 12 22  4  0
 14 24  4  0
 14 25  4  0
 15 17  4  0
 17 20  4  0
 18 23  1  0
 19 25  4  0
M  END
$$$$

 Created by Python create_sdf_string function

 25 28  0  0  0  0  0  0  0  0999 V2000
   13.1533   -5.2399   21.0682 C   0  0  0  0  0  0  0  0  0  0  0  0
   10.4729   -4.0295   17.6135 C   0  0  0  0  0  0  0  0  0  0  0  0
   10.4789   -4.3641   20.9564 C   0  0  0  0  0  0  0  0  0  0  0  0
    8.7421   -5.1412   16.3650 C   0  0  0  0  0  0  0  0  0  0  0  0
   11.4353   -2.9204   17.8044 C   0  0  0  0  0  0  0  0  0  0  0  0
   11.1529   -4.3028   22.1277 C   0  0  0  0  0  0  0  0  0  0  0  0
   11.1290   -4.8502   19.8052 C   0  0  0  0  0  0  0  0  0  0  0  0
   12.4329   -4.2159   24.4224 C   0  0  0  0  0  0  0  0  0  0  0  0
    3.4740   -9.0387   16.5022 C   0  0  0  0  0  0  0  0  0  0  0  0
    6.8384   -7.9290   17.5282 N   0  0  0  0  0  0  0  0  0  0  0  0
    9.4126   -5.9853   18.4899 C   0  0  0  0  0  0  0  0  0  0  0  0
    4.2064  -10.3242   18.3302 C   0  0  0  0  0  0  0  0  0  0  0  0
    9.6599   -4.1551   16.4796 N   0  0  0  0  0  0  0  0  0  0  0  0
    7.0644   -6.4612   15.7375 N   0  0  0  0  0  0  0  0  0  0  0  0
    5.3549   -9.6322   18.3190 C   0  0  0  0  0  0  0  0  0  0  0  0
   10.3704   -4.9638   18.6510 C   0  0  0  0  0  0  0  0  0  0  0  0
    5.5935   -8.6419   17.4234 C   0  0  0  0  0  0  0  0  0  0  0  0
   13.0726   -4.6648   23.3394 O   0  0  0  0  0  0  0  0  0  0  0  0
    8.5955   -6.0705   17.3996 C   0  0  0  0  0  0  0  0  0  0  0  0
    4.6223   -8.3832   16.5030 C   0  0  0  0  0  0  0  0  0  0  0  0
   12.4690   -5.2624   19.9024 C   0  0  0  0  0  0  0  0  0  0  0  0
    3.2548   -9.9919   17.4189 C   0  0  0  0  0  0  0  0  0  0  0  0
   12.4767   -4.7393   22.1790 C   0  0  0  0  0  0  0  0  0  0  0  0
    7.8593   -5.3772   15.3569 N   0  0  0  0  0  0  0  0  0  0  0  0
    7.4412   -6.9038   16.9283 C   0  0  0  0  0  0  0  0  0  0  0  0
  1 21  4  0
  1 23  4  0
  2  5  1  0
  2 13  4  0
  2 16  4  0
  3  6  4  0
  3  7  4  0
  4 13  4  0
  4 19  4  0
  4 24  4  0
  6 23  4  0
  7 16  1  0
  7 21  4  0
  8 18  1  0
  9 20  4  0
  9 22  4  0
 10 17  1  0
 10 25  1  0
 11 16  4  0
 11 19  4  0
 12 15  4  0
 12 22  4  0
 14 24  4  0
 14 25  4  0
 15 17  4  0
 17 20  4  0
 18 23  1  0
 19 25  4  0
M  END
$$$$

 Created by Python create_sdf_string function

 25 28  0  0  0  0  0  0  0  0999 V2000
   13.1533   -5.2399   21.0682 C   0  0  0  0  0  0  0  0  0  0  0  0
   10.4729   -4.0295   17.6135 C   0  0  0  0  0  0  0  0  0  0  0  0
   10.4789   -4.3641   20.9564 C   0  0  0  0  0  0  0  0  0  0  0  0
    8.7421   -5.1412   16.3650 C   0  0  0  0  0  0  0  0  0  0  0  0
   11.4353   -2.9204   17.8044 C   0  0  0  0  0  0  0  0  0  0  0  0
   11.1529   -4.3028   22.1277 C   0  0  0  0  0  0  0  0  0  0  0  0
   11.1290   -4.8502   19.8052 C   0  0  0  0  0  0  0  0  0  0  0  0
   12.4329   -4.2159   24.4224 C   0  0  0  0  0  0  0  0  0  0  0  0
    3.4740   -9.0387   16.5022 C   0  0  0  0  0  0  0  0  0  0  0  0
    6.8384   -7.9290   17.5282 N   0  0  0  0  0  0  0  0  0  0  0  0
    9.4126   -5.9853   18.4899 C   0  0  0  0  0  0  0  0  0  0  0  0
    4.2064  -10.3242   18.3302 C   0  0  0  0  0  0  0  0  0  0  0  0
    9.6599   -4.1551   16.4796 N   0  0  0  0  0  0  0  0  0  0  0  0
    7.0644   -6.4612   15.7375 N   0  0  0  0  0  0  0  0  0  0  0  0
    5.3549   -9.6322   18.3190 C   0  0  0  0  0  0  0  0  0  0  0  0
   10.3704   -4.9638   18.6510 C   0  0  0  0  0  0  0  0  0  0  0  0
    5.5935   -8.6419   17.4234 C   0  0  0  0  0  0  0  0  0  0  0  0
   13.0726   -4.6648   23.3394 O   0  0  0  0  0  0  0  0  0  0  0  0
    8.5955   -6.0705   17.3996 C   0  0  0  0  0  0  0  0  0  0  0  0
    4.6223   -8.3832   16.5030 C   0  0  0  0  0  0  0  0  0  0  0  0
   12.4690   -5.2624   19.9024 C   0  0  0  0  0  0  0  0  0  0  0  0
    3.2548   -9.9919   17.4189 C   0  0  0  0  0  0  0  0  0  0  0  0
   12.4767   -4.7393   22.1790 C   0  0  0  0  0  0  0  0  0  0  0  0
    7.8593   -5.3772   15.3569 N   0  0  0  0  0  0  0  0  0  0  0  0
    7.4412   -6.9038   16.9283 C   0  0  0  0  0  0  0  0  0  0  0  0
  1 21  4  0
  1 23  4  0
  2  5  1  0
  2 13  4  0
  2 16  4  0
  3  6  4  0
  3  7  4  0
  4 13  4  0
  4 19  4  0
  4 24  4  0
  6 23  4  0
  7 16  1  0
  7 21  4  0
  8 18  1  0
  9 20  4  0
  9 22  4  0
 10 17  1  0
 10 25  1  0
 11 16  4  0
 11 19  4  0
 12 15  4  0
 12 22  4  0
 14 24  4  0
 14 25  4  0
 15 17  4  0
 17 20  4  0
 18 23  1  0
 19 25  4  0
M  END
$$$$

 Created by Python create_sdf_string function

 25 28  0  0  0  0  0  0  0  0999 V2000
   13.1533   -5.2399   21.0682 C   0  0  0  0  0  0  0  0  0  0  0  0
   10.4729   -4.0295   17.6135 C   0  0  0  0  0  0  0  0  0  0  0  0
   10.4789   -4.3641   20.9564 C   0  0  0  0  0  0  0  0  0  0  0  0
    8.7421   -5.1412   16.3650 C   0  0  0  0  0  0  0  0  0  0  0  0
   11.4353   -2.9204   17.8044 C   0  0  0  0  0  0  0  0  0  0  0  0
   11.1529   -4.3028   22.1277 C   0  0  0  0  0  0  0  0  0  0  0  0
   11.1290   -4.8502   19.8052 C   0  0  0  0  0  0  0  0  0  0  0  0
   12.4329   -4.2159   24.4224 C   0  0  0  0  0  0  0  0  0  0  0  0
    3.4740   -9.0387   16.5022 C   0  0  0  0  0  0  0  0  0  0  0  0
    6.8384   -7.9290   17.5282 N   0  0  0  0  0  0  0  0  0  0  0  0
    9.4126   -5.9853   18.4899 C   0  0  0  0  0  0  0  0  0  0  0  0
    4.2064  -10.3242   18.3302 C   0  0  0  0  0  0  0  0  0  0  0  0
    9.6599   -4.1551   16.4796 N   0  0  0  0  0  0  0  0  0  0  0  0
    7.0644   -6.4612   15.7375 N   0  0  0  0  0  0  0  0  0  0  0  0
    5.3549   -9.6322   18.3190 C   0  0  0  0  0  0  0  0  0  0  0  0
   10.3704   -4.9638   18.6510 C   0  0  0  0  0  0  0  0  0  0  0  0
    5.5935   -8.6419   17.4234 C   0  0  0  0  0  0  0  0  0  0  0  0
   13.0726   -4.6648   23.3394 O   0  0  0  0  0  0  0  0  0  0  0  0
    8.5955   -6.0705   17.3996 C   0  0  0  0  0  0  0  0  0  0  0  0
    4.6223   -8.3832   16.5030 C   0  0  0  0  0  0  0  0  0  0  0  0
   12.4690   -5.2624   19.9024 C   0  0  0  0  0  0  0  0  0  0  0  0
    3.2548   -9.9919   17.4189 C   0  0  0  0  0  0  0  0  0  0  0  0
   12.4767   -4.7393   22.1790 C   0  0  0  0  0  0  0  0  0  0  0  0
    7.8593   -5.3772   15.3569 N   0  0  0  0  0  0  0  0  0  0  0  0
    7.4412   -6.9038   16.9283 C   0  0  0  0  0  0  0  0  0  0  0  0
  1 21  4  0
  1 23  4  0
  2  5  1  0
  2 13  4  0
  2 16  4  0
  3  6  4  0
  3  7  4  0
  4 13  4  0
  4 19  4  0
  4 24  4  0
  6 23  4  0
  7 16  1  0
  7 21  4  0
  8 18  1  0
  9 20  4  0
  9 22  4  0
 10 17  1  0
 10 25  1  0
 11 16  4  0
 11 19  4  0
 12 15  4  0
 12 22  4  0
 14 24  4  0
 14 25  4  0
 15 17  4  0
 17 20  4  0
 18 23  1  0
 19 25  4  0
M  END
$$$$

 Created by Python create_sdf_string function

 25 28  0  0  0  0  0  0  0  0999 V2000
   13.1533   -5.2399   21.0682 C   0  0  0  0  0  0  0  0  0  0  0  0
   10.4729   -4.0295   17.6135 C   0  0  0  0  0  0  0  0  0  0  0  0
   10.4789   -4.3641   20.9564 C   0  0  0  0  0  0  0  0  0  0  0  0
    8.7421   -5.1412   16.3650 C   0  0  0  0  0  0  0  0  0  0  0  0
   11.4353   -2.9204   17.8044 C   0  0  0  0  0  0  0  0  0  0  0  0
   11.1529   -4.3028   22.1277 C   0  0  0  0  0  0  0  0  0  0  0  0
   11.1290   -4.8502   19.8052 C   0  0  0  0  0  0  0  0  0  0  0  0
   12.4329   -4.2159   24.4224 C   0  0  0  0  0  0  0  0  0  0  0  0
    3.4740   -9.0387   16.5022 C   0  0  0  0  0  0  0  0  0  0  0  0
    6.8384   -7.9290   17.5282 N   0  0  0  0  0  0  0  0  0  0  0  0
    9.4126   -5.9853   18.4899 C   0  0  0  0  0  0  0  0  0  0  0  0
    4.2064  -10.3242   18.3302 C   0  0  0  0  0  0  0  0  0  0  0  0
    9.6599   -4.1551   16.4796 N   0  0  0  0  0  0  0  0  0  0  0  0
    7.0644   -6.4612   15.7375 N   0  0  0  0  0  0  0  0  0  0  0  0
    5.3549   -9.6322   18.3190 C   0  0  0  0  0  0  0  0  0  0  0  0
   10.3704   -4.9638   18.6510 C   0  0  0  0  0  0  0  0  0  0  0  0
    5.5935   -8.6419   17.4234 C   0  0  0  0  0  0  0  0  0  0  0  0
   13.0726   -4.6648   23.3394 O   0  0  0  0  0  0  0  0  0  0  0  0
    8.5955   -6.0705   17.3996 C   0  0  0  0  0  0  0  0  0  0  0  0
    4.6223   -8.3832   16.5030 C   0  0  0  0  0  0  0  0  0  0  0  0
   12.4690   -5.2624   19.9024 C   0  0  0  0  0  0  0  0  0  0  0  0
    3.2548   -9.9919   17.4189 C   0  0  0  0  0  0  0  0  0  0  0  0
   12.4767   -4.7393   22.1790 C   0  0  0  0  0  0  0  0  0  0  0  0
    7.8593   -5.3772   15.3569 N   0  0  0  0  0  0  0  0  0  0  0  0
    7.4412   -6.9038   16.9283 C   0  0  0  0  0  0  0  0  0  0  0  0
  1 21  4  0
  1 23  4  0
  2  5  1  0
  2 13  4  0
  2 16  4  0
  3  6  4  0
  3  7  4  0
  4 13  4  0
  4 19  4  0
  4 24  4  0
  6 23  4  0
  7 16  1  0
  7 21  4  0
  8 18  1  0
  9 20  4  0
  9 22  4  0
 10 17  1  0
 10 25  1  0
 11 16  4  0
 11 19  4  0
 12 15  4  0
 12 22  4  0
 14 24  4  0
 14 25  4  0
 15 17  4  0
 17 20  4  0
 18 23  1  0
 19 25  4  0
M  END
$$$$

 Created by Python create_sdf_string function

 25 28  0  0  0  0  0  0  0  0999 V2000
   13.1533   -5.2399   21.0682 C   0  0  0  0  0  0  0  0  0  0  0  0
   10.4729   -4.0295   17.6135 C   0  0  0  0  0  0  0  0  0  0  0  0
   10.4789   -4.3641   20.9564 C   0  0  0  0  0  0  0  0  0  0  0  0
    8.7421   -5.1412   16.3650 C   0  0  0  0  0  0  0  0  0  0  0  0
   11.4353   -2.9204   17.8044 C   0  0  0  0  0  0  0  0  0  0  0  0
   11.1529   -4.3028   22.1277 C   0  0  0  0  0  0  0  0  0  0  0  0
   11.1290   -4.8502   19.8052 C   0  0  0  0  0  0  0  0  0  0  0  0
   12.4329   -4.2159   24.4224 C   0  0  0  0  0  0  0  0  0  0  0  0
    3.4740   -9.0387   16.5022 C   0  0  0  0  0  0  0  0  0  0  0  0
    6.8384   -7.9290   17.5282 N   0  0  0  0  0  0  0  0  0  0  0  0
    9.4126   -5.9853   18.4899 C   0  0  0  0  0  0  0  0  0  0  0  0
    4.2064  -10.3242   18.3302 C   0  0  0  0  0  0  0  0  0  0  0  0
    9.6599   -4.1551   16.4796 N   0  0  0  0  0  0  0  0  0  0  0  0
    7.0644   -6.4612   15.7375 N   0  0  0  0  0  0  0  0  0  0  0  0
    5.3549   -9.6322   18.3190 C   0  0  0  0  0  0  0  0  0  0  0  0
   10.3704   -4.9638   18.6510 C   0  0  0  0  0  0  0  0  0  0  0  0
    5.5935   -8.6419   17.4234 C   0  0  0  0  0  0  0  0  0  0  0  0
   13.0726   -4.6648   23.3394 O   0  0  0  0  0  0  0  0  0  0  0  0
    8.5955   -6.0705   17.3996 C   0  0  0  0  0  0  0  0  0  0  0  0
    4.6223   -8.3832   16.5030 C   0  0  0  0  0  0  0  0  0  0  0  0
   12.4690   -5.2624   19.9024 C   0  0  0  0  0  0  0  0  0  0  0  0
    3.2548   -9.9919   17.4189 C   0  0  0  0  0  0  0  0  0  0  0  0
   12.4767   -4.7393   22.1790 C   0  0  0  0  0  0  0  0  0  0  0  0
    7.8593   -5.3772   15.3569 N   0  0  0  0  0  0  0  0  0  0  0  0
    7.4412   -6.9038   16.9283 C   0  0  0  0  0  0  0  0  0  0  0  0
  1 21  4  0
  1 23  4  0
  2  5  1  0
  2 13  4  0
  2 16  4  0
  3  6  4  0
  3  7  4  0
  4 13  4  0
  4 19  4  0
  4 24  4  0
  6 23  4  0
  7 16  1  0
  7 21  4  0
  8 18  1  0
  9 20  4  0
  9 22  4  0
 10 17  1  0
 10 25  1  0
 11 16  4  0
 11 19  4  0
 12 15  4  0
 12 22  4  0
 14 24  4  0
 14 25  4  0
 15 17  4  0
 17 20  4  0
 18 23  1  0
 19 25  4  0
M  END
$$$$

 Created by Python create_sdf_string function

 25 28  0  0  0  0  0  0  0  0999 V2000
   13.1533   -5.2399   21.0682 C   0  0  0  0  0  0  0  0  0  0  0  0
   10.4729   -4.0295   17.6135 C   0  0  0  0  0  0  0  0  0  0  0  0
   10.4789   -4.3641   20.9564 C   0  0  0  0  0  0  0  0  0  0  0  0
    8.7421   -5.1412   16.3650 C   0  0  0  0  0  0  0  0  0  0  0  0
   11.4353   -2.9204   17.8044 C   0  0  0  0  0  0  0  0  0  0  0  0
   11.1529   -4.3028   22.1277 C   0  0  0  0  0  0  0  0  0  0  0  0
   11.1290   -4.8502   19.8052 C   0  0  0  0  0  0  0  0  0  0  0  0
   12.4329   -4.2159   24.4224 C   0  0  0  0  0  0  0  0  0  0  0  0
    3.4740   -9.0387   16.5022 C   0  0  0  0  0  0  0  0  0  0  0  0
    6.8384   -7.9290   17.5282 N   0  0  0  0  0  0  0  0  0  0  0  0
    9.4126   -5.9853   18.4899 C   0  0  0  0  0  0  0  0  0  0  0  0
    4.2064  -10.3242   18.3302 C   0  0  0  0  0  0  0  0  0  0  0  0
    9.6599   -4.1551   16.4796 N   0  0  0  0  0  0  0  0  0  0  0  0
    7.0644   -6.4612   15.7375 N   0  0  0  0  0  0  0  0  0  0  0  0
    5.3549   -9.6322   18.3190 C   0  0  0  0  0  0  0  0  0  0  0  0
   10.3704   -4.9638   18.6510 C   0  0  0  0  0  0  0  0  0  0  0  0
    5.5935   -8.6419   17.4234 C   0  0  0  0  0  0  0  0  0  0  0  0
   13.0726   -4.6648   23.3394 O   0  0  0  0  0  0  0  0  0  0  0  0
    8.5955   -6.0705   17.3996 C   0  0  0  0  0  0  0  0  0  0  0  0
    4.6223   -8.3832   16.5030 C   0  0  0  0  0  0  0  0  0  0  0  0
   12.4690   -5.2624   19.9024 C   0  0  0  0  0  0  0  0  0  0  0  0
    3.2548   -9.9919   17.4189 C   0  0  0  0  0  0  0  0  0  0  0  0
   12.4767   -4.7393   22.1790 C   0  0  0  0  0  0  0  0  0  0  0  0
    7.8593   -5.3772   15.3569 N   0  0  0  0  0  0  0  0  0  0  0  0
    7.4412   -6.9038   16.9283 C   0  0  0  0  0  0  0  0  0  0  0  0
  1 21  4  0
  1 23  4  0
  2  5  1  0
  2 13  4  0
  2 16  4  0
  3  6  4  0
  3  7  4  0
  4 13  4  0
  4 19  4  0
  4 24  4  0
  6 23  4  0
  7 16  1  0
  7 21  4  0
  8 18  1  0
  9 20  4  0
  9 22  4  0
 10 17  1  0
 10 25  1  0
 11 16  4  0
 11 19  4  0
 12 15  4  0
 12 22  4  0
 14 24  4  0
 14 25  4  0
 15 17  4  0
 17 20  4  0
 18 23  1  0
 19 25  4  0
M  END
$$$$

 Created by Python create_sdf_string function

 25 28  0  0  0  0  0  0  0  0999 V2000
   13.1533   -5.2399   21.0682 C   0  0  0  0  0  0  0  0  0  0  0  0
   10.4729   -4.0295   17.6135 C   0  0  0  0  0  0  0  0  0  0  0  0
   10.4789   -4.3641   20.9564 C   0  0  0  0  0  0  0  0  0  0  0  0
    8.7421   -5.1412   16.3650 C   0  0  0  0  0  0  0  0  0  0  0  0
   11.4353   -2.9204   17.8044 C   0  0  0  0  0  0  0  0  0  0  0  0
   11.1529   -4.3028   22.1277 C   0  0  0  0  0  0  0  0  0  0  0  0
   11.1290   -4.8502   19.8052 C   0  0  0  0  0  0  0  0  0  0  0  0
   12.4329   -4.2159   24.4224 C   0  0  0  0  0  0  0  0  0  0  0  0
    3.4740   -9.0387   16.5022 C   0  0  0  0  0  0  0  0  0  0  0  0
    6.8384   -7.9290   17.5282 N   0  0  0  0  0  0  0  0  0  0  0  0
    9.4126   -5.9853   18.4899 C   0  0  0  0  0  0  0  0  0  0  0  0
    4.2064  -10.3242   18.3302 C   0  0  0  0  0  0  0  0  0  0  0  0
    9.6599   -4.1551   16.4796 N   0  0  0  0  0  0  0  0  0  0  0  0
    7.0644   -6.4612   15.7375 N   0  0  0  0  0  0  0  0  0  0  0  0
    5.3549   -9.6322   18.3190 C   0  0  0  0  0  0  0  0  0  0  0  0
   10.3704   -4.9638   18.6510 C   0  0  0  0  0  0  0  0  0  0  0  0
    5.5935   -8.6419   17.4234 C   0  0  0  0  0  0  0  0  0  0  0  0
   13.0726   -4.6648   23.3394 O   0  0  0  0  0  0  0  0  0  0  0  0
    8.5955   -6.0705   17.3996 C   0  0  0  0  0  0  0  0  0  0  0  0
    4.6223   -8.3832   16.5030 C   0  0  0  0  0  0  0  0  0  0  0  0
   12.4690   -5.2624   19.9024 C   0  0  0  0  0  0  0  0  0  0  0  0
    3.2548   -9.9919   17.4189 C   0  0  0  0  0  0  0  0  0  0  0  0
   12.4767   -4.7393   22.1790 C   0  0  0  0  0  0  0  0  0  0  0  0
    7.8593   -5.3772   15.3569 N   0  0  0  0  0  0  0  0  0  0  0  0
    7.4412   -6.9038   16.9283 C   0  0  0  0  0  0  0  0  0  0  0  0
  1 21  4  0
  1 23  4  0
  2  5  1  0
  2 13  4  0
  2 16  4  0
  3  6  4  0
  3  7  4  0
  4 13  4  0
  4 19  4  0
  4 24  4  0
  6 23  4  0
  7 16  1  0
  7 21  4  0
  8 18  1  0
  9 20  4  0
  9 22  4  0
 10 17  1  0
 10 25  1  0
 11 16  4  0
 11 19  4  0
 12 15  4  0
 12 22  4  0
 14 24  4  0
 14 25  4  0
 15 17  4  0
 17 20  4  0
 18 23  1  0
 19 25  4  0
M  END
$$$$

 Created by Python create_sdf_string function

 25 28  0  0  0  0  0  0  0  0999 V2000
   13.1533   -5.2399   21.0682 C   0  0  0  0  0  0  0  0  0  0  0  0
   10.4729   -4.0295   17.6135 C   0  0  0  0  0  0  0  0  0  0  0  0
   10.4789   -4.3641   20.9564 C   0  0  0  0  0  0  0  0  0  0  0  0
    8.7421   -5.1412   16.3650 C   0  0  0  0  0  0  0  0  0  0  0  0
   11.4353   -2.9204   17.8044 C   0  0  0  0  0  0  0  0  0  0  0  0
   11.1529   -4.3028   22.1277 C   0  0  0  0  0  0  0  0  0  0  0  0
   11.1290   -4.8502   19.8052 C   0  0  0  0  0  0  0  0  0  0  0  0
   12.4329   -4.2159   24.4224 C   0  0  0  0  0  0  0  0  0  0  0  0
    3.4740   -9.0387   16.5022 C   0  0  0  0  0  0  0  0  0  0  0  0
    6.8384   -7.9290   17.5282 N   0  0  0  0  0  0  0  0  0  0  0  0
    9.4126   -5.9853   18.4899 C   0  0  0  0  0  0  0  0  0  0  0  0
    4.2064  -10.3242   18.3302 C   0  0  0  0  0  0  0  0  0  0  0  0
    9.6599   -4.1551   16.4796 N   0  0  0  0  0  0  0  0  0  0  0  0
    7.0644   -6.4612   15.7375 N   0  0  0  0  0  0  0  0  0  0  0  0
    5.3549   -9.6322   18.3190 C   0  0  0  0  0  0  0  0  0  0  0  0
   10.3704   -4.9638   18.6510 C   0  0  0  0  0  0  0  0  0  0  0  0
    5.5935   -8.6419   17.4234 C   0  0  0  0  0  0  0  0  0  0  0  0
   13.0726   -4.6648   23.3394 O   0  0  0  0  0  0  0  0  0  0  0  0
    8.5955   -6.0705   17.3996 C   0  0  0  0  0  0  0  0  0  0  0  0
    4.6223   -8.3832   16.5030 C   0  0  0  0  0  0  0  0  0  0  0  0
   12.4690   -5.2624   19.9024 C   0  0  0  0  0  0  0  0  0  0  0  0
    3.2548   -9.9919   17.4189 C   0  0  0  0  0  0  0  0  0  0  0  0
   12.4767   -4.7393   22.1790 C   0  0  0  0  0  0  0  0  0  0  0  0
    7.8593   -5.3772   15.3569 N   0  0  0  0  0  0  0  0  0  0  0  0
    7.4412   -6.9038   16.9283 C   0  0  0  0  0  0  0  0  0  0  0  0
  1 21  4  0
  1 23  4  0
  2  5  1  0
  2 13  4  0
  2 16  4  0
  3  6  4  0
  3  7  4  0
  4 13  4  0
  4 19  4  0
  4 24  4  0
  6 23  4  0
  7 16  1  0
  7 21  4  0
  8 18  1  0
  9 20  4  0
  9 22  4  0
 10 17  1  0
 10 25  1  0
 11 16  4  0
 11 19  4  0
 12 15  4  0
 12 22  4  0
 14 24  4  0
 14 25  4  0
 15 17  4  0
 17 20  4  0
 18 23  1  0
 19 25  4  0
M  END
$$$$

 Created by Python create_sdf_string function

 25 28  0  0  0  0  0  0  0  0999 V2000
   13.1533   -5.2399   21.0682 C   0  0  0  0  0  0  0  0  0  0  0  0
   10.4729   -4.0295   17.6135 C   0  0  0  0  0  0  0  0  0  0  0  0
   10.4789   -4.3641   20.9564 C   0  0  0  0  0  0  0  0  0  0  0  0
    8.7421   -5.1412   16.3650 C   0  0  0  0  0  0  0  0  0  0  0  0
   11.4353   -2.9204   17.8044 C   0  0  0  0  0  0  0  0  0  0  0  0
   11.1529   -4.3028   22.1277 C   0  0  0  0  0  0  0  0  0  0  0  0
   11.1290   -4.8502   19.8052 C   0  0  0  0  0  0  0  0  0  0  0  0
   12.4329   -4.2159   24.4224 C   0  0  0  0  0  0  0  0  0  0  0  0
    3.4740   -9.0387   16.5022 C   0  0  0  0  0  0  0  0  0  0  0  0
    6.8384   -7.9290   17.5282 N   0  0  0  0  0  0  0  0  0  0  0  0
    9.4126   -5.9853   18.4899 C   0  0  0  0  0  0  0  0  0  0  0  0
    4.2064  -10.3242   18.3302 C   0  0  0  0  0  0  0  0  0  0  0  0
    9.6599   -4.1551   16.4796 N   0  0  0  0  0  0  0  0  0  0  0  0
    7.0644   -6.4612   15.7375 N   0  0  0  0  0  0  0  0  0  0  0  0
    5.3549   -9.6322   18.3190 C   0  0  0  0  0  0  0  0  0  0  0  0
   10.3704   -4.9638   18.6510 C   0  0  0  0  0  0  0  0  0  0  0  0
    5.5935   -8.6419   17.4234 C   0  0  0  0  0  0  0  0  0  0  0  0
   13.0726   -4.6648   23.3394 O   0  0  0  0  0  0  0  0  0  0  0  0
    8.5955   -6.0705   17.3996 C   0  0  0  0  0  0  0  0  0  0  0  0
    4.6223   -8.3832   16.5030 C   0  0  0  0  0  0  0  0  0  0  0  0
   12.4690   -5.2624   19.9024 C   0  0  0  0  0  0  0  0  0  0  0  0
    3.2548   -9.9919   17.4189 C   0  0  0  0  0  0  0  0  0  0  0  0
   12.4767   -4.7393   22.1790 C   0  0  0  0  0  0  0  0  0  0  0  0
    7.8593   -5.3772   15.3569 N   0  0  0  0  0  0  0  0  0  0  0  0
    7.4412   -6.9038   16.9283 C   0  0  0  0  0  0  0  0  0  0  0  0
  1 21  4  0
  1 23  4  0
  2  5  1  0
  2 13  4  0
  2 16  4  0
  3  6  4  0
  3  7  4  0
  4 13  4  0
  4 19  4  0
  4 24  4  0
  6 23  4  0
  7 16  1  0
  7 21  4  0
  8 18  1  0
  9 20  4  0
  9 22  4  0
 10 17  1  0
 10 25  1  0
 11 16  4  0
 11 19  4  0
 12 15  4  0
 12 22  4  0
 14 24  4  0
 14 25  4  0
 15 17  4  0
 17 20  4  0
 18 23  1  0
 19 25  4  0
M  END
$$$$

 Created by Python create_sdf_string function

 25 28  0  0  0  0  0  0  0  0999 V2000
   13.1533   -5.2399   21.0682 C   0  0  0  0  0  0  0  0  0  0  0  0
   10.4729   -4.0295   17.6135 C   0  0  0  0  0  0  0  0  0  0  0  0
   10.4789   -4.3641   20.9564 C   0  0  0  0  0  0  0  0  0  0  0  0
    8.7421   -5.1412   16.3650 C   0  0  0  0  0  0  0  0  0  0  0  0
   11.4353   -2.9204   17.8044 C   0  0  0  0  0  0  0  0  0  0  0  0
   11.1529   -4.3028   22.1277 C   0  0  0  0  0  0  0  0  0  0  0  0
   11.1290   -4.8502   19.8052 C   0  0  0  0  0  0  0  0  0  0  0  0
   12.4329   -4.2159   24.4224 C   0  0  0  0  0  0  0  0  0  0  0  0
    3.4740   -9.0387   16.5022 C   0  0  0  0  0  0  0  0  0  0  0  0
    6.8384   -7.9290   17.5282 N   0  0  0  0  0  0  0  0  0  0  0  0
    9.4126   -5.9853   18.4899 C   0  0  0  0  0  0  0  0  0  0  0  0
    4.2064  -10.3242   18.3302 C   0  0  0  0  0  0  0  0  0  0  0  0
    9.6599   -4.1551   16.4796 N   0  0  0  0  0  0  0  0  0  0  0  0
    7.0644   -6.4612   15.7375 N   0  0  0  0  0  0  0  0  0  0  0  0
    5.3549   -9.6322   18.3190 C   0  0  0  0  0  0  0  0  0  0  0  0
   10.3704   -4.9638   18.6510 C   0  0  0  0  0  0  0  0  0  0  0  0
    5.5935   -8.6419   17.4234 C   0  0  0  0  0  0  0  0  0  0  0  0
   13.0726   -4.6648   23.3394 O   0  0  0  0  0  0  0  0  0  0  0  0
    8.5955   -6.0705   17.3996 C   0  0  0  0  0  0  0  0  0  0  0  0
    4.6223   -8.3832   16.5030 C   0  0  0  0  0  0  0  0  0  0  0  0
   12.4690   -5.2624   19.9024 C   0  0  0  0  0  0  0  0  0  0  0  0
    3.2548   -9.9919   17.4189 C   0  0  0  0  0  0  0  0  0  0  0  0
   12.4767   -4.7393   22.1790 C   0  0  0  0  0  0  0  0  0  0  0  0
    7.8593   -5.3772   15.3569 N   0  0  0  0  0  0  0  0  0  0  0  0
    7.4412   -6.9038   16.9283 C   0  0  0  0  0  0  0  0  0  0  0  0
  1 21  4  0
  1 23  4  0
  2  5  1  0
  2 13  4  0
  2 16  4  0
  3  6  4  0
  3  7  4  0
  4 13  4  0
  4 19  4  0
  4 24  4  0
  6 23  4  0
  7 16  1  0
  7 21  4  0
  8 18  1  0
  9 20  4  0
  9 22  4  0
 10 17  1  0
 10 25  1  0
 11 16  4  0
 11 19  4  0
 12 15  4  0
 12 22  4  0
 14 24  4  0
 14 25  4  0
 15 17  4  0
 17 20  4  0
 18 23  1  0
 19 25  4  0
M  END
$$$$

 Created by Python create_sdf_string function

 25 28  0  0  0  0  0  0  0  0999 V2000
   13.1533   -5.2399   21.0682 C   0  0  0  0  0  0  0  0  0  0  0  0
   10.4729   -4.0295   17.6135 C   0  0  0  0  0  0  0  0  0  0  0  0
   10.4789   -4.3641   20.9564 C   0  0  0  0  0  0  0  0  0  0  0  0
    8.7421   -5.1412   16.3650 C   0  0  0  0  0  0  0  0  0  0  0  0
   11.4353   -2.9204   17.8044 C   0  0  0  0  0  0  0  0  0  0  0  0
   11.1529   -4.3028   22.1277 C   0  0  0  0  0  0  0  0  0  0  0  0
   11.1290   -4.8502   19.8052 C   0  0  0  0  0  0  0  0  0  0  0  0
   12.4329   -4.2159   24.4224 C   0  0  0  0  0  0  0  0  0  0  0  0
    3.4740   -9.0387   16.5022 C   0  0  0  0  0  0  0  0  0  0  0  0
    6.8384   -7.9290   17.5282 N   0  0  0  0  0  0  0  0  0  0  0  0
    9.4126   -5.9853   18.4899 C   0  0  0  0  0  0  0  0  0  0  0  0
    4.2064  -10.3242   18.3302 C   0  0  0  0  0  0  0  0  0  0  0  0
    9.6599   -4.1551   16.4796 N   0  0  0  0  0  0  0  0  0  0  0  0
    7.0644   -6.4612   15.7375 N   0  0  0  0  0  0  0  0  0  0  0  0
    5.3549   -9.6322   18.3190 C   0  0  0  0  0  0  0  0  0  0  0  0
   10.3704   -4.9638   18.6510 C   0  0  0  0  0  0  0  0  0  0  0  0
    5.5935   -8.6419   17.4234 C   0  0  0  0  0  0  0  0  0  0  0  0
   13.0726   -4.6648   23.3394 O   0  0  0  0  0  0  0  0  0  0  0  0
    8.5955   -6.0705   17.3996 C   0  0  0  0  0  0  0  0  0  0  0  0
    4.6223   -8.3832   16.5030 C   0  0  0  0  0  0  0  0  0  0  0  0
   12.4690   -5.2624   19.9024 C   0  0  0  0  0  0  0  0  0  0  0  0
    3.2548   -9.9919   17.4189 C   0  0  0  0  0  0  0  0  0  0  0  0
   12.4767   -4.7393   22.1790 C   0  0  0  0  0  0  0  0  0  0  0  0
    7.8593   -5.3772   15.3569 N   0  0  0  0  0  0  0  0  0  0  0  0
    7.4412   -6.9038   16.9283 C   0  0  0  0  0  0  0  0  0  0  0  0
  1 21  4  0
  1 23  4  0
  2  5  1  0
  2 13  4  0
  2 16  4  0
  3  6  4  0
  3  7  4  0
  4 13  4  0
  4 19  4  0
  4 24  4  0
  6 23  4  0
  7 16  1  0
  7 21  4  0
  8 18  1  0
  9 20  4  0
  9 22  4  0
 10 17  1  0
 10 25  1  0
 11 16  4  0
 11 19  4  0
 12 15  4  0
 12 22  4  0
 14 24  4  0
 14 25  4  0
 15 17  4  0
 17 20  4  0
 18 23  1  0
 19 25  4  0
M  END
$$$$

 Created by Python create_sdf_string function

 25 28  0  0  0  0  0  0  0  0999 V2000
   13.1533   -5.2399   21.0682 C   0  0  0  0  0  0  0  0  0  0  0  0
   10.4729   -4.0295   17.6135 C   0  0  0  0  0  0  0  0  0  0  0  0
   10.4789   -4.3641   20.9564 C   0  0  0  0  0  0  0  0  0  0  0  0
    8.7421   -5.1412   16.3650 C   0  0  0  0  0  0  0  0  0  0  0  0
   11.4353   -2.9204   17.8044 C   0  0  0  0  0  0  0  0  0  0  0  0
   11.1529   -4.3028   22.1277 C   0  0  0  0  0  0  0  0  0  0  0  0
   11.1290   -4.8502   19.8052 C   0  0  0  0  0  0  0  0  0  0  0  0
   12.4329   -4.2159   24.4224 C   0  0  0  0  0  0  0  0  0  0  0  0
    3.4740   -9.0387   16.5022 C   0  0  0  0  0  0  0  0  0  0  0  0
    6.8384   -7.9290   17.5282 N   0  0  0  0  0  0  0  0  0  0  0  0
    9.4126   -5.9853   18.4899 C   0  0  0  0  0  0  0  0  0  0  0  0
    4.2064  -10.3242   18.3302 C   0  0  0  0  0  0  0  0  0  0  0  0
    9.6599   -4.1551   16.4796 N   0  0  0  0  0  0  0  0  0  0  0  0
    7.0644   -6.4612   15.7375 N   0  0  0  0  0  0  0  0  0  0  0  0
    5.3549   -9.6322   18.3190 C   0  0  0  0  0  0  0  0  0  0  0  0
   10.3704   -4.9638   18.6510 C   0  0  0  0  0  0  0  0  0  0  0  0
    5.5935   -8.6419   17.4234 C   0  0  0  0  0  0  0  0  0  0  0  0
   13.0726   -4.6648   23.3394 O   0  0  0  0  0  0  0  0  0  0  0  0
    8.5955   -6.0705   17.3996 C   0  0  0  0  0  0  0  0  0  0  0  0
    4.6223   -8.3832   16.5030 C   0  0  0  0  0  0  0  0  0  0  0  0
   12.4690   -5.2624   19.9024 C   0  0  0  0  0  0  0  0  0  0  0  0
    3.2548   -9.9919   17.4189 C   0  0  0  0  0  0  0  0  0  0  0  0
   12.4767   -4.7393   22.1790 C   0  0  0  0  0  0  0  0  0  0  0  0
    7.8593   -5.3772   15.3569 N   0  0  0  0  0  0  0  0  0  0  0  0
    7.4412   -6.9038   16.9283 C   0  0  0  0  0  0  0  0  0  0  0  0
  1 21  4  0
  1 23  4  0
  2  5  1  0
  2 13  4  0
  2 16  4  0
  3  6  4  0
  3  7  4  0
  4 13  4  0
  4 19  4  0
  4 24  4  0
  6 23  4  0
  7 16  1  0
  7 21  4  0
  8 18  1  0
  9 20  4  0
  9 22  4  0
 10 17  1  0
 10 25  1  0
 11 16  4  0
 11 19  4  0
 12 15  4  0
 12 22  4  0
 14 24  4  0
 14 25  4  0
 15 17  4  0
 17 20  4  0
 18 23  1  0
 19 25  4  0
M  END
$$$$

 Created by Python create_sdf_string function

 25 28  0  0  0  0  0  0  0  0999 V2000
   13.1533   -5.2399   21.0682 C   0  0  0  0  0  0  0  0  0  0  0  0
   10.4729   -4.0295   17.6135 C   0  0  0  0  0  0  0  0  0  0  0  0
   10.4789   -4.3641   20.9564 C   0  0  0  0  0  0  0  0  0  0  0  0
    8.7421   -5.1412   16.3650 C   0  0  0  0  0  0  0  0  0  0  0  0
   11.4353   -2.9204   17.8044 C   0  0  0  0  0  0  0  0  0  0  0  0
   11.1529   -4.3028   22.1277 C   0  0  0  0  0  0  0  0  0  0  0  0
   11.1290   -4.8502   19.8052 C   0  0  0  0  0  0  0  0  0  0  0  0
   12.4329   -4.2159   24.4224 C   0  0  0  0  0  0  0  0  0  0  0  0
    3.4740   -9.0387   16.5022 C   0  0  0  0  0  0  0  0  0  0  0  0
    6.8384   -7.9290   17.5282 N   0  0  0  0  0  0  0  0  0  0  0  0
    9.4126   -5.9853   18.4899 C   0  0  0  0  0  0  0  0  0  0  0  0
    4.2064  -10.3242   18.3302 C   0  0  0  0  0  0  0  0  0  0  0  0
    9.6599   -4.1551   16.4796 N   0  0  0  0  0  0  0  0  0  0  0  0
    7.0644   -6.4612   15.7375 N   0  0  0  0  0  0  0  0  0  0  0  0
    5.3549   -9.6322   18.3190 C   0  0  0  0  0  0  0  0  0  0  0  0
   10.3704   -4.9638   18.6510 C   0  0  0  0  0  0  0  0  0  0  0  0
    5.5935   -8.6419   17.4234 C   0  0  0  0  0  0  0  0  0  0  0  0
   13.0726   -4.6648   23.3394 O   0  0  0  0  0  0  0  0  0  0  0  0
    8.5955   -6.0705   17.3996 C   0  0  0  0  0  0  0  0  0  0  0  0
    4.6223   -8.3832   16.5030 C   0  0  0  0  0  0  0  0  0  0  0  0
   12.4690   -5.2624   19.9024 C   0  0  0  0  0  0  0  0  0  0  0  0
    3.2548   -9.9919   17.4189 C   0  0  0  0  0  0  0  0  0  0  0  0
   12.4767   -4.7393   22.1790 C   0  0  0  0  0  0  0  0  0  0  0  0
    7.8593   -5.3772   15.3569 N   0  0  0  0  0  0  0  0  0  0  0  0
    7.4412   -6.9038   16.9283 C   0  0  0  0  0  0  0  0  0  0  0  0
  1 21  4  0
  1 23  4  0
  2  5  1  0
  2 13  4  0
  2 16  4  0
  3  6  4  0
  3  7  4  0
  4 13  4  0
  4 19  4  0
  4 24  4  0
  6 23  4  0
  7 16  1  0
  7 21  4  0
  8 18  1  0
  9 20  4  0
  9 22  4  0
 10 17  1  0
 10 25  1  0
 11 16  4  0
 11 19  4  0
 12 15  4  0
 12 22  4  0
 14 24  4  0
 14 25  4  0
 15 17  4  0
 17 20  4  0
 18 23  1  0
 19 25  4  0
M  END
$$$$

 Created by Python create_sdf_string function

 25 28  0  0  0  0  0  0  0  0999 V2000
   13.1533   -5.2399   21.0682 C   0  0  0  0  0  0  0  0  0  0  0  0
   10.4729   -4.0295   17.6135 C   0  0  0  0  0  0  0  0  0  0  0  0
   10.4789   -4.3641   20.9564 C   0  0  0  0  0  0  0  0  0  0  0  0
    8.7421   -5.1412   16.3650 C   0  0  0  0  0  0  0  0  0  0  0  0
   11.4353   -2.9204   17.8044 C   0  0  0  0  0  0  0  0  0  0  0  0
   11.1529   -4.3028   22.1277 C   0  0  0  0  0  0  0  0  0  0  0  0
   11.1290   -4.8502   19.8052 C   0  0  0  0  0  0  0  0  0  0  0  0
   12.4329   -4.2159   24.4224 C   0  0  0  0  0  0  0  0  0  0  0  0
    3.4740   -9.0387   16.5022 C   0  0  0  0  0  0  0  0  0  0  0  0
    6.8384   -7.9290   17.5282 N   0  0  0  0  0  0  0  0  0  0  0  0
    9.4126   -5.9853   18.4899 C   0  0  0  0  0  0  0  0  0  0  0  0
    4.2064  -10.3242   18.3302 C   0  0  0  0  0  0  0  0  0  0  0  0
    9.6599   -4.1551   16.4796 N   0  0  0  0  0  0  0  0  0  0  0  0
    7.0644   -6.4612   15.7375 N   0  0  0  0  0  0  0  0  0  0  0  0
    5.3549   -9.6322   18.3190 C   0  0  0  0  0  0  0  0  0  0  0  0
   10.3704   -4.9638   18.6510 C   0  0  0  0  0  0  0  0  0  0  0  0
    5.5935   -8.6419   17.4234 C   0  0  0  0  0  0  0  0  0  0  0  0
   13.0726   -4.6648   23.3394 O   0  0  0  0  0  0  0  0  0  0  0  0
    8.5955   -6.0705   17.3996 C   0  0  0  0  0  0  0  0  0  0  0  0
    4.6223   -8.3832   16.5030 C   0  0  0  0  0  0  0  0  0  0  0  0
   12.4690   -5.2624   19.9024 C   0  0  0  0  0  0  0  0  0  0  0  0
    3.2548   -9.9919   17.4189 C   0  0  0  0  0  0  0  0  0  0  0  0
   12.4767   -4.7393   22.1790 C   0  0  0  0  0  0  0  0  0  0  0  0
    7.8593   -5.3772   15.3569 N   0  0  0  0  0  0  0  0  0  0  0  0
    7.4412   -6.9038   16.9283 C   0  0  0  0  0  0  0  0  0  0  0  0
  1 21  4  0
  1 23  4  0
  2  5  1  0
  2 13  4  0
  2 16  4  0
  3  6  4  0
  3  7  4  0
  4 13  4  0
  4 19  4  0
  4 24  4  0
  6 23  4  0
  7 16  1  0
  7 21  4  0
  8 18  1  0
  9 20  4  0
  9 22  4  0
 10 17  1  0
 10 25  1  0
 11 16  4  0
 11 19  4  0
 12 15  4  0
 12 22  4  0
 14 24  4  0
 14 25  4  0
 15 17  4  0
 17 20  4  0
 18 23  1  0
 19 25  4  0
M  END
$$$$

 Created by Python create_sdf_string function

 25 28  0  0  0  0  0  0  0  0999 V2000
   13.1533   -5.2399   21.0682 C   0  0  0  0  0  0  0  0  0  0  0  0
   10.4729   -4.0295   17.6135 C   0  0  0  0  0  0  0  0  0  0  0  0
   10.4789   -4.3641   20.9564 C   0  0  0  0  0  0  0  0  0  0  0  0
    8.7421   -5.1412   16.3650 C   0  0  0  0  0  0  0  0  0  0  0  0
   11.4353   -2.9204   17.8044 C   0  0  0  0  0  0  0  0  0  0  0  0
   11.1529   -4.3028   22.1277 C   0  0  0  0  0  0  0  0  0  0  0  0
   11.1290   -4.8502   19.8052 C   0  0  0  0  0  0  0  0  0  0  0  0
   12.4329   -4.2159   24.4224 C   0  0  0  0  0  0  0  0  0  0  0  0
    3.4740   -9.0387   16.5022 C   0  0  0  0  0  0  0  0  0  0  0  0
    6.8384   -7.9290   17.5282 N   0  0  0  0  0  0  0  0  0  0  0  0
    9.4126   -5.9853   18.4899 C   0  0  0  0  0  0  0  0  0  0  0  0
    4.2064  -10.3242   18.3302 C   0  0  0  0  0  0  0  0  0  0  0  0
    9.6599   -4.1551   16.4796 N   0  0  0  0  0  0  0  0  0  0  0  0
    7.0644   -6.4612   15.7375 N   0  0  0  0  0  0  0  0  0  0  0  0
    5.3549   -9.6322   18.3190 C   0  0  0  0  0  0  0  0  0  0  0  0
   10.3704   -4.9638   18.6510 C   0  0  0  0  0  0  0  0  0  0  0  0
    5.5935   -8.6419   17.4234 C   0  0  0  0  0  0  0  0  0  0  0  0
   13.0726   -4.6648   23.3394 O   0  0  0  0  0  0  0  0  0  0  0  0
    8.5955   -6.0705   17.3996 C   0  0  0  0  0  0  0  0  0  0  0  0
    4.6223   -8.3832   16.5030 C   0  0  0  0  0  0  0  0  0  0  0  0
   12.4690   -5.2624   19.9024 C   0  0  0  0  0  0  0  0  0  0  0  0
    3.2548   -9.9919   17.4189 C   0  0  0  0  0  0  0  0  0  0  0  0
   12.4767   -4.7393   22.1790 C   0  0  0  0  0  0  0  0  0  0  0  0
    7.8593   -5.3772   15.3569 N   0  0  0  0  0  0  0  0  0  0  0  0
    7.4412   -6.9038   16.9283 C   0  0  0  0  0  0  0  0  0  0  0  0
  1 21  4  0
  1 23  4  0
  2  5  1  0
  2 13  4  0
  2 16  4  0
  3  6  4  0
  3  7  4  0
  4 13  4  0
  4 19  4  0
  4 24  4  0
  6 23  4  0
  7 16  1  0
  7 21  4  0
  8 18  1  0
  9 20  4  0
  9 22  4  0
 10 17  1  0
 10 25  1  0
 11 16  4  0
 11 19  4  0
 12 15  4  0
 12 22  4  0
 14 24  4  0
 14 25  4  0
 15 17  4  0
 17 20  4  0
 18 23  1  0
 19 25  4  0
M  END
$$$$

 Created by Python create_sdf_string function

 25 28  0  0  0  0  0  0  0  0999 V2000
   13.1533   -5.2399   21.0682 C   0  0  0  0  0  0  0  0  0  0  0  0
   10.4729   -4.0295   17.6135 C   0  0  0  0  0  0  0  0  0  0  0  0
   10.4789   -4.3641   20.9564 C   0  0  0  0  0  0  0  0  0  0  0  0
    8.7421   -5.1412   16.3650 C   0  0  0  0  0  0  0  0  0  0  0  0
   11.4353   -2.9204   17.8044 C   0  0  0  0  0  0  0  0  0  0  0  0
   11.1529   -4.3028   22.1277 C   0  0  0  0  0  0  0  0  0  0  0  0
   11.1290   -4.8502   19.8052 C   0  0  0  0  0  0  0  0  0  0  0  0
   12.4329   -4.2159   24.4224 C   0  0  0  0  0  0  0  0  0  0  0  0
    3.4740   -9.0387   16.5022 C   0  0  0  0  0  0  0  0  0  0  0  0
    6.8384   -7.9290   17.5282 N   0  0  0  0  0  0  0  0  0  0  0  0
    9.4126   -5.9853   18.4899 C   0  0  0  0  0  0  0  0  0  0  0  0
    4.2064  -10.3242   18.3302 C   0  0  0  0  0  0  0  0  0  0  0  0
    9.6599   -4.1551   16.4796 N   0  0  0  0  0  0  0  0  0  0  0  0
    7.0644   -6.4612   15.7375 N   0  0  0  0  0  0  0  0  0  0  0  0
    5.3549   -9.6322   18.3190 C   0  0  0  0  0  0  0  0  0  0  0  0
   10.3704   -4.9638   18.6510 C   0  0  0  0  0  0  0  0  0  0  0  0
    5.5935   -8.6419   17.4234 C   0  0  0  0  0  0  0  0  0  0  0  0
   13.0726   -4.6648   23.3394 O   0  0  0  0  0  0  0  0  0  0  0  0
    8.5955   -6.0705   17.3996 C   0  0  0  0  0  0  0  0  0  0  0  0
    4.6223   -8.3832   16.5030 C   0  0  0  0  0  0  0  0  0  0  0  0
   12.4690   -5.2624   19.9024 C   0  0  0  0  0  0  0  0  0  0  0  0
    3.2548   -9.9919   17.4189 C   0  0  0  0  0  0  0  0  0  0  0  0
   12.4767   -4.7393   22.1790 C   0  0  0  0  0  0  0  0  0  0  0  0
    7.8593   -5.3772   15.3569 N   0  0  0  0  0  0  0  0  0  0  0  0
    7.4412   -6.9038   16.9283 C   0  0  0  0  0  0  0  0  0  0  0  0
  1 21  4  0
  1 23  4  0
  2  5  1  0
  2 13  4  0
  2 16  4  0
  3  6  4  0
  3  7  4  0
  4 13  4  0
  4 19  4  0
  4 24  4  0
  6 23  4  0
  7 16  1  0
  7 21  4  0
  8 18  1  0
  9 20  4  0
  9 22  4  0
 10 17  1  0
 10 25  1  0
 11 16  4  0
 11 19  4  0
 12 15  4  0
 12 22  4  0
 14 24  4  0
 14 25  4  0
 15 17  4  0
 17 20  4  0
 18 23  1  0
 19 25  4  0
M  END
$$$$

 Created by Python create_sdf_string function

 25 28  0  0  0  0  0  0  0  0999 V2000
   13.1533   -5.2399   21.0682 C   0  0  0  0  0  0  0  0  0  0  0  0
   10.4729   -4.0295   17.6135 C   0  0  0  0  0  0  0  0  0  0  0  0
   10.4789   -4.3641   20.9564 C   0  0  0  0  0  0  0  0  0  0  0  0
    8.7421   -5.1412   16.3650 C   0  0  0  0  0  0  0  0  0  0  0  0
   11.4353   -2.9204   17.8044 C   0  0  0  0  0  0  0  0  0  0  0  0
   11.1529   -4.3028   22.1277 C   0  0  0  0  0  0  0  0  0  0  0  0
   11.1290   -4.8502   19.8052 C   0  0  0  0  0  0  0  0  0  0  0  0
   12.4329   -4.2159   24.4224 C   0  0  0  0  0  0  0  0  0  0  0  0
    3.4740   -9.0387   16.5022 C   0  0  0  0  0  0  0  0  0  0  0  0
    6.8384   -7.9290   17.5282 N   0  0  0  0  0  0  0  0  0  0  0  0
    9.4126   -5.9853   18.4899 C   0  0  0  0  0  0  0  0  0  0  0  0
    4.2064  -10.3242   18.3302 C   0  0  0  0  0  0  0  0  0  0  0  0
    9.6599   -4.1551   16.4796 N   0  0  0  0  0  0  0  0  0  0  0  0
    7.0644   -6.4612   15.7375 N   0  0  0  0  0  0  0  0  0  0  0  0
    5.3549   -9.6322   18.3190 C   0  0  0  0  0  0  0  0  0  0  0  0
   10.3704   -4.9638   18.6510 C   0  0  0  0  0  0  0  0  0  0  0  0
    5.5935   -8.6419   17.4234 C   0  0  0  0  0  0  0  0  0  0  0  0
   13.0726   -4.6648   23.3394 O   0  0  0  0  0  0  0  0  0  0  0  0
    8.5955   -6.0705   17.3996 C   0  0  0  0  0  0  0  0  0  0  0  0
    4.6223   -8.3832   16.5030 C   0  0  0  0  0  0  0  0  0  0  0  0
   12.4690   -5.2624   19.9024 C   0  0  0  0  0  0  0  0  0  0  0  0
    3.2548   -9.9919   17.4189 C   0  0  0  0  0  0  0  0  0  0  0  0
   12.4767   -4.7393   22.1790 C   0  0  0  0  0  0  0  0  0  0  0  0
    7.8593   -5.3772   15.3569 N   0  0  0  0  0  0  0  0  0  0  0  0
    7.4412   -6.9038   16.9283 C   0  0  0  0  0  0  0  0  0  0  0  0
  1 21  4  0
  1 23  4  0
  2  5  1  0
  2 13  4  0
  2 16  4  0
  3  6  4  0
  3  7  4  0
  4 13  4  0
  4 19  4  0
  4 24  4  0
  6 23  4  0
  7 16  1  0
  7 21  4  0
  8 18  1  0
  9 20  4  0
  9 22  4  0
 10 17  1  0
 10 25  1  0
 11 16  4  0
 11 19  4  0
 12 15  4  0
 12 22  4  0
 14 24  4  0
 14 25  4  0
 15 17  4  0
 17 20  4  0
 18 23  1  0
 19 25  4  0
M  END
$$$$

 Created by Python create_sdf_string function

 25 28  0  0  0  0  0  0  0  0999 V2000
   13.1533   -5.2399   21.0682 C   0  0  0  0  0  0  0  0  0  0  0  0
   10.4729   -4.0295   17.6135 C   0  0  0  0  0  0  0  0  0  0  0  0
   10.4789   -4.3641   20.9564 C   0  0  0  0  0  0  0  0  0  0  0  0
    8.7421   -5.1412   16.3650 C   0  0  0  0  0  0  0  0  0  0  0  0
   11.4353   -2.9204   17.8044 C   0  0  0  0  0  0  0  0  0  0  0  0
   11.1529   -4.3028   22.1277 C   0  0  0  0  0  0  0  0  0  0  0  0
   11.1290   -4.8502   19.8052 C   0  0  0  0  0  0  0  0  0  0  0  0
   12.4329   -4.2159   24.4224 C   0  0  0  0  0  0  0  0  0  0  0  0
    3.4740   -9.0387   16.5022 C   0  0  0  0  0  0  0  0  0  0  0  0
    6.8384   -7.9290   17.5282 N   0  0  0  0  0  0  0  0  0  0  0  0
    9.4126   -5.9853   18.4899 C   0  0  0  0  0  0  0  0  0  0  0  0
    4.2064  -10.3242   18.3302 C   0  0  0  0  0  0  0  0  0  0  0  0
    9.6599   -4.1551   16.4796 N   0  0  0  0  0  0  0  0  0  0  0  0
    7.0644   -6.4612   15.7375 N   0  0  0  0  0  0  0  0  0  0  0  0
    5.3549   -9.6322   18.3190 C   0  0  0  0  0  0  0  0  0  0  0  0
   10.3704   -4.9638   18.6510 C   0  0  0  0  0  0  0  0  0  0  0  0
    5.5935   -8.6419   17.4234 C   0  0  0  0  0  0  0  0  0  0  0  0
   13.0726   -4.6648   23.3394 O   0  0  0  0  0  0  0  0  0  0  0  0
    8.5955   -6.0705   17.3996 C   0  0  0  0  0  0  0  0  0  0  0  0
    4.6223   -8.3832   16.5030 C   0  0  0  0  0  0  0  0  0  0  0  0
   12.4690   -5.2624   19.9024 C   0  0  0  0  0  0  0  0  0  0  0  0
    3.2548   -9.9919   17.4189 C   0  0  0  0  0  0  0  0  0  0  0  0
   12.4767   -4.7393   22.1790 C   0  0  0  0  0  0  0  0  0  0  0  0
    7.8593   -5.3772   15.3569 N   0  0  0  0  0  0  0  0  0  0  0  0
    7.4412   -6.9038   16.9283 C   0  0  0  0  0  0  0  0  0  0  0  0
  1 21  4  0
  1 23  4  0
  2  5  1  0
  2 13  4  0
  2 16  4  0
  3  6  4  0
  3  7  4  0
  4 13  4  0
  4 19  4  0
  4 24  4  0
  6 23  4  0
  7 16  1  0
  7 21  4  0
  8 18  1  0
  9 20  4  0
  9 22  4  0
 10 17  1  0
 10 25  1  0
 11 16  4  0
 11 19  4  0
 12 15  4  0
 12 22  4  0
 14 24  4  0
 14 25  4  0
 15 17  4  0
 17 20  4  0
 18 23  1  0
 19 25  4  0
M  END
$$$$

 Created by Python create_sdf_string function

 25 28  0  0  0  0  0  0  0  0999 V2000
   13.1533   -5.2399   21.0682 C   0  0  0  0  0  0  0  0  0  0  0  0
   10.4729   -4.0295   17.6135 C   0  0  0  0  0  0  0  0  0  0  0  0
   10.4789   -4.3641   20.9564 C   0  0  0  0  0  0  0  0  0  0  0  0
    8.7421   -5.1412   16.3650 C   0  0  0  0  0  0  0  0  0  0  0  0
   11.4353   -2.9204   17.8044 C   0  0  0  0  0  0  0  0  0  0  0  0
   11.1529   -4.3028   22.1277 C   0  0  0  0  0  0  0  0  0  0  0  0
   11.1290   -4.8502   19.8052 C   0  0  0  0  0  0  0  0  0  0  0  0
   12.4329   -4.2159   24.4224 C   0  0  0  0  0  0  0  0  0  0  0  0
    3.4740   -9.0387   16.5022 C   0  0  0  0  0  0  0  0  0  0  0  0
    6.8384   -7.9290   17.5282 N   0  0  0  0  0  0  0  0  0  0  0  0
    9.4126   -5.9853   18.4899 C   0  0  0  0  0  0  0  0  0  0  0  0
    4.2064  -10.3242   18.3302 C   0  0  0  0  0  0  0  0  0  0  0  0
    9.6599   -4.1551   16.4796 N   0  0  0  0  0  0  0  0  0  0  0  0
    7.0644   -6.4612   15.7375 N   0  0  0  0  0  0  0  0  0  0  0  0
    5.3549   -9.6322   18.3190 C   0  0  0  0  0  0  0  0  0  0  0  0
   10.3704   -4.9638   18.6510 C   0  0  0  0  0  0  0  0  0  0  0  0
    5.5935   -8.6419   17.4234 C   0  0  0  0  0  0  0  0  0  0  0  0
   13.0726   -4.6648   23.3394 O   0  0  0  0  0  0  0  0  0  0  0  0
    8.5955   -6.0705   17.3996 C   0  0  0  0  0  0  0  0  0  0  0  0
    4.6223   -8.3832   16.5030 C   0  0  0  0  0  0  0  0  0  0  0  0
   12.4690   -5.2624   19.9024 C   0  0  0  0  0  0  0  0  0  0  0  0
    3.2548   -9.9919   17.4189 C   0  0  0  0  0  0  0  0  0  0  0  0
   12.4767   -4.7393   22.1790 C   0  0  0  0  0  0  0  0  0  0  0  0
    7.8593   -5.3772   15.3569 N   0  0  0  0  0  0  0  0  0  0  0  0
    7.4412   -6.9038   16.9283 C   0  0  0  0  0  0  0  0  0  0  0  0
  1 21  4  0
  1 23  4  0
  2  5  1  0
  2 13  4  0
  2 16  4  0
  3  6  4  0
  3  7  4  0
  4 13  4  0
  4 19  4  0
  4 24  4  0
  6 23  4  0
  7 16  1  0
  7 21  4  0
  8 18  1  0
  9 20  4  0
  9 22  4  0
 10 17  1  0
 10 25  1  0
 11 16  4  0
 11 19  4  0
 12 15  4  0
 12 22  4  0
 14 24  4  0
 14 25  4  0
 15 17  4  0
 17 20  4  0
 18 23  1  0
 19 25  4  0
M  END
$$$$

 Created by Python create_sdf_string function

 25 28  0  0  0  0  0  0  0  0999 V2000
   13.1533   -5.2399   21.0682 C   0  0  0  0  0  0  0  0  0  0  0  0
   10.4729   -4.0295   17.6135 C   0  0  0  0  0  0  0  0  0  0  0  0
   10.4789   -4.3641   20.9564 C   0  0  0  0  0  0  0  0  0  0  0  0
    8.7421   -5.1412   16.3650 C   0  0  0  0  0  0  0  0  0  0  0  0
   11.4353   -2.9204   17.8044 C   0  0  0  0  0  0  0  0  0  0  0  0
   11.1529   -4.3028   22.1277 C   0  0  0  0  0  0  0  0  0  0  0  0
   11.1290   -4.8502   19.8052 C   0  0  0  0  0  0  0  0  0  0  0  0
   12.4329   -4.2159   24.4224 C   0  0  0  0  0  0  0  0  0  0  0  0
    3.4740   -9.0387   16.5022 C   0  0  0  0  0  0  0  0  0  0  0  0
    6.8384   -7.9290   17.5282 N   0  0  0  0  0  0  0  0  0  0  0  0
    9.4126   -5.9853   18.4899 C   0  0  0  0  0  0  0  0  0  0  0  0
    4.2064  -10.3242   18.3302 C   0  0  0  0  0  0  0  0  0  0  0  0
    9.6599   -4.1551   16.4796 N   0  0  0  0  0  0  0  0  0  0  0  0
    7.0644   -6.4612   15.7375 N   0  0  0  0  0  0  0  0  0  0  0  0
    5.3549   -9.6322   18.3190 C   0  0  0  0  0  0  0  0  0  0  0  0
   10.3704   -4.9638   18.6510 C   0  0  0  0  0  0  0  0  0  0  0  0
    5.5935   -8.6419   17.4234 C   0  0  0  0  0  0  0  0  0  0  0  0
   13.0726   -4.6648   23.3394 O   0  0  0  0  0  0  0  0  0  0  0  0
    8.5955   -6.0705   17.3996 C   0  0  0  0  0  0  0  0  0  0  0  0
    4.6223   -8.3832   16.5030 C   0  0  0  0  0  0  0  0  0  0  0  0
   12.4690   -5.2624   19.9024 C   0  0  0  0  0  0  0  0  0  0  0  0
    3.2548   -9.9919   17.4189 C   0  0  0  0  0  0  0  0  0  0  0  0
   12.4767   -4.7393   22.1790 C   0  0  0  0  0  0  0  0  0  0  0  0
    7.8593   -5.3772   15.3569 N   0  0  0  0  0  0  0  0  0  0  0  0
    7.4412   -6.9038   16.9283 C   0  0  0  0  0  0  0  0  0  0  0  0
  1 21  4  0
  1 23  4  0
  2  5  1  0
  2 13  4  0
  2 16  4  0
  3  6  4  0
  3  7  4  0
  4 13  4  0
  4 19  4  0
  4 24  4  0
  6 23  4  0
  7 16  1  0
  7 21  4  0
  8 18  1  0
  9 20  4  0
  9 22  4  0
 10 17  1  0
 10 25  1  0
 11 16  4  0
 11 19  4  0
 12 15  4  0
 12 22  4  0
 14 24  4  0
 14 25  4  0
 15 17  4  0
 17 20  4  0
 18 23  1  0
 19 25  4  0
M  END
$$$$

 Created by Python create_sdf_string function

 25 28  0  0  0  0  0  0  0  0999 V2000
   13.1533   -5.2399   21.0682 C   0  0  0  0  0  0  0  0  0  0  0  0
   10.4729   -4.0295   17.6135 C   0  0  0  0  0  0  0  0  0  0  0  0
   10.4789   -4.3641   20.9564 C   0  0  0  0  0  0  0  0  0  0  0  0
    8.7421   -5.1412   16.3650 C   0  0  0  0  0  0  0  0  0  0  0  0
   11.4353   -2.9204   17.8044 C   0  0  0  0  0  0  0  0  0  0  0  0
   11.1529   -4.3028   22.1277 C   0  0  0  0  0  0  0  0  0  0  0  0
   11.1290   -4.8502   19.8052 C   0  0  0  0  0  0  0  0  0  0  0  0
   12.4329   -4.2159   24.4224 C   0  0  0  0  0  0  0  0  0  0  0  0
    3.4740   -9.0387   16.5022 C   0  0  0  0  0  0  0  0  0  0  0  0
    6.8384   -7.9290   17.5282 N   0  0  0  0  0  0  0  0  0  0  0  0
    9.4126   -5.9853   18.4899 C   0  0  0  0  0  0  0  0  0  0  0  0
    4.2064  -10.3242   18.3302 C   0  0  0  0  0  0  0  0  0  0  0  0
    9.6599   -4.1551   16.4796 N   0  0  0  0  0  0  0  0  0  0  0  0
    7.0644   -6.4612   15.7375 N   0  0  0  0  0  0  0  0  0  0  0  0
    5.3549   -9.6322   18.3190 C   0  0  0  0  0  0  0  0  0  0  0  0
   10.3704   -4.9638   18.6510 C   0  0  0  0  0  0  0  0  0  0  0  0
    5.5935   -8.6419   17.4234 C   0  0  0  0  0  0  0  0  0  0  0  0
   13.0726   -4.6648   23.3394 O   0  0  0  0  0  0  0  0  0  0  0  0
    8.5955   -6.0705   17.3996 C   0  0  0  0  0  0  0  0  0  0  0  0
    4.6223   -8.3832   16.5030 C   0  0  0  0  0  0  0  0  0  0  0  0
   12.4690   -5.2624   19.9024 C   0  0  0  0  0  0  0  0  0  0  0  0
    3.2548   -9.9919   17.4189 C   0  0  0  0  0  0  0  0  0  0  0  0
   12.4767   -4.7393   22.1790 C   0  0  0  0  0  0  0  0  0  0  0  0
    7.8593   -5.3772   15.3569 N   0  0  0  0  0  0  0  0  0  0  0  0
    7.4412   -6.9038   16.9283 C   0  0  0  0  0  0  0  0  0  0  0  0
  1 21  4  0
  1 23  4  0
  2  5  1  0
  2 13  4  0
  2 16  4  0
  3  6  4  0
  3  7  4  0
  4 13  4  0
  4 19  4  0
  4 24  4  0
  6 23  4  0
  7 16  1  0
  7 21  4  0
  8 18  1  0
  9 20  4  0
  9 22  4  0
 10 17  1  0
 10 25  1  0
 11 16  4  0
 11 19  4  0
 12 15  4  0
 12 22  4  0
 14 24  4  0
 14 25  4  0
 15 17  4  0
 17 20  4  0
 18 23  1  0
 19 25  4  0
M  END
$$$$

 Created by Python create_sdf_string function

 25 28  0  0  0  0  0  0  0  0999 V2000
   13.1533   -5.2399   21.0682 C   0  0  0  0  0  0  0  0  0  0  0  0
   10.4729   -4.0295   17.6135 C   0  0  0  0  0  0  0  0  0  0  0  0
   10.4789   -4.3641   20.9564 C   0  0  0  0  0  0  0  0  0  0  0  0
    8.7421   -5.1412   16.3650 C   0  0  0  0  0  0  0  0  0  0  0  0
   11.4353   -2.9204   17.8044 C   0  0  0  0  0  0  0  0  0  0  0  0
   11.1529   -4.3028   22.1277 C   0  0  0  0  0  0  0  0  0  0  0  0
   11.1290   -4.8502   19.8052 C   0  0  0  0  0  0  0  0  0  0  0  0
   12.4329   -4.2159   24.4224 C   0  0  0  0  0  0  0  0  0  0  0  0
    3.4740   -9.0387   16.5022 C   0  0  0  0  0  0  0  0  0  0  0  0
    6.8384   -7.9290   17.5282 N   0  0  0  0  0  0  0  0  0  0  0  0
    9.4126   -5.9853   18.4899 C   0  0  0  0  0  0  0  0  0  0  0  0
    4.2064  -10.3242   18.3302 C   0  0  0  0  0  0  0  0  0  0  0  0
    9.6599   -4.1551   16.4796 N   0  0  0  0  0  0  0  0  0  0  0  0
    7.0644   -6.4612   15.7375 N   0  0  0  0  0  0  0  0  0  0  0  0
    5.3549   -9.6322   18.3190 C   0  0  0  0  0  0  0  0  0  0  0  0
   10.3704   -4.9638   18.6510 C   0  0  0  0  0  0  0  0  0  0  0  0
    5.5935   -8.6419   17.4234 C   0  0  0  0  0  0  0  0  0  0  0  0
   13.0726   -4.6648   23.3394 O   0  0  0  0  0  0  0  0  0  0  0  0
    8.5955   -6.0705   17.3996 C   0  0  0  0  0  0  0  0  0  0  0  0
    4.6223   -8.3832   16.5030 C   0  0  0  0  0  0  0  0  0  0  0  0
   12.4690   -5.2624   19.9024 C   0  0  0  0  0  0  0  0  0  0  0  0
    3.2548   -9.9919   17.4189 C   0  0  0  0  0  0  0  0  0  0  0  0
   12.4767   -4.7393   22.1790 C   0  0  0  0  0  0  0  0  0  0  0  0
    7.8593   -5.3772   15.3569 N   0  0  0  0  0  0  0  0  0  0  0  0
    7.4412   -6.9038   16.9283 C   0  0  0  0  0  0  0  0  0  0  0  0
  1 21  4  0
  1 23  4  0
  2  5  1  0
  2 13  4  0
  2 16  4  0
  3  6  4  0
  3  7  4  0
  4 13  4  0
  4 19  4  0
  4 24  4  0
  6 23  4  0
  7 16  1  0
  7 21  4  0
  8 18  1  0
  9 20  4  0
  9 22  4  0
 10 17  1  0
 10 25  1  0
 11 16  4  0
 11 19  4  0
 12 15  4  0
 12 22  4  0
 14 24  4  0
 14 25  4  0
 15 17  4  0
 17 20  4  0
 18 23  1  0
 19 25  4  0
M  END
$$$$

 Created by Python create_sdf_string function

 25 28  0  0  0  0  0  0  0  0999 V2000
   13.1533   -5.2399   21.0682 C   0  0  0  0  0  0  0  0  0  0  0  0
   10.4729   -4.0295   17.6135 C   0  0  0  0  0  0  0  0  0  0  0  0
   10.4789   -4.3641   20.9564 C   0  0  0  0  0  0  0  0  0  0  0  0
    8.7421   -5.1412   16.3650 C   0  0  0  0  0  0  0  0  0  0  0  0
   11.4353   -2.9204   17.8044 C   0  0  0  0  0  0  0  0  0  0  0  0
   11.1529   -4.3028   22.1277 C   0  0  0  0  0  0  0  0  0  0  0  0
   11.1290   -4.8502   19.8052 C   0  0  0  0  0  0  0  0  0  0  0  0
   12.4329   -4.2159   24.4224 C   0  0  0  0  0  0  0  0  0  0  0  0
    3.4740   -9.0387   16.5022 C   0  0  0  0  0  0  0  0  0  0  0  0
    6.8384   -7.9290   17.5282 N   0  0  0  0  0  0  0  0  0  0  0  0
    9.4126   -5.9853   18.4899 C   0  0  0  0  0  0  0  0  0  0  0  0
    4.2064  -10.3242   18.3302 C   0  0  0  0  0  0  0  0  0  0  0  0
    9.6599   -4.1551   16.4796 N   0  0  0  0  0  0  0  0  0  0  0  0
    7.0644   -6.4612   15.7375 N   0  0  0  0  0  0  0  0  0  0  0  0
    5.3549   -9.6322   18.3190 C   0  0  0  0  0  0  0  0  0  0  0  0
   10.3704   -4.9638   18.6510 C   0  0  0  0  0  0  0  0  0  0  0  0
    5.5935   -8.6419   17.4234 C   0  0  0  0  0  0  0  0  0  0  0  0
   13.0726   -4.6648   23.3394 O   0  0  0  0  0  0  0  0  0  0  0  0
    8.5955   -6.0705   17.3996 C   0  0  0  0  0  0  0  0  0  0  0  0
    4.6223   -8.3832   16.5030 C   0  0  0  0  0  0  0  0  0  0  0  0
   12.4690   -5.2624   19.9024 C   0  0  0  0  0  0  0  0  0  0  0  0
    3.2548   -9.9919   17.4189 C   0  0  0  0  0  0  0  0  0  0  0  0
   12.4767   -4.7393   22.1790 C   0  0  0  0  0  0  0  0  0  0  0  0
    7.8593   -5.3772   15.3569 N   0  0  0  0  0  0  0  0  0  0  0  0
    7.4412   -6.9038   16.9283 C   0  0  0  0  0  0  0  0  0  0  0  0
  1 21  4  0
  1 23  4  0
  2  5  1  0
  2 13  4  0
  2 16  4  0
  3  6  4  0
  3  7  4  0
  4 13  4  0
  4 19  4  0
  4 24  4  0
  6 23  4  0
  7 16  1  0
  7 21  4  0
  8 18  1  0
  9 20  4  0
  9 22  4  0
 10 17  1  0
 10 25  1  0
 11 16  4  0
 11 19  4  0
 12 15  4  0
 12 22  4  0
 14 24  4  0
 14 25  4  0
 15 17  4  0
 17 20  4  0
 18 23  1  0
 19 25  4  0
M  END
$$$$

 Created by Python create_sdf_string function

 25 28  0  0  0  0  0  0  0  0999 V2000
   13.1533   -5.2399   21.0682 C   0  0  0  0  0  0  0  0  0  0  0  0
   10.4729   -4.0295   17.6135 C   0  0  0  0  0  0  0  0  0  0  0  0
   10.4789   -4.3641   20.9564 C   0  0  0  0  0  0  0  0  0  0  0  0
    8.7421   -5.1412   16.3650 C   0  0  0  0  0  0  0  0  0  0  0  0
   11.4353   -2.9204   17.8044 C   0  0  0  0  0  0  0  0  0  0  0  0
   11.1529   -4.3028   22.1277 C   0  0  0  0  0  0  0  0  0  0  0  0
   11.1290   -4.8502   19.8052 C   0  0  0  0  0  0  0  0  0  0  0  0
   12.4329   -4.2159   24.4224 C   0  0  0  0  0  0  0  0  0  0  0  0
    3.4740   -9.0387   16.5022 C   0  0  0  0  0  0  0  0  0  0  0  0
    6.8384   -7.9290   17.5282 N   0  0  0  0  0  0  0  0  0  0  0  0
    9.4126   -5.9853   18.4899 C   0  0  0  0  0  0  0  0  0  0  0  0
    4.2064  -10.3242   18.3302 C   0  0  0  0  0  0  0  0  0  0  0  0
    9.6599   -4.1551   16.4796 N   0  0  0  0  0  0  0  0  0  0  0  0
    7.0644   -6.4612   15.7375 N   0  0  0  0  0  0  0  0  0  0  0  0
    5.3549   -9.6322   18.3190 C   0  0  0  0  0  0  0  0  0  0  0  0
   10.3704   -4.9638   18.6510 C   0  0  0  0  0  0  0  0  0  0  0  0
    5.5935   -8.6419   17.4234 C   0  0  0  0  0  0  0  0  0  0  0  0
   13.0726   -4.6648   23.3394 O   0  0  0  0  0  0  0  0  0  0  0  0
    8.5955   -6.0705   17.3996 C   0  0  0  0  0  0  0  0  0  0  0  0
    4.6223   -8.3832   16.5030 C   0  0  0  0  0  0  0  0  0  0  0  0
   12.4690   -5.2624   19.9024 C   0  0  0  0  0  0  0  0  0  0  0  0
    3.2548   -9.9919   17.4189 C   0  0  0  0  0  0  0  0  0  0  0  0
   12.4767   -4.7393   22.1790 C   0  0  0  0  0  0  0  0  0  0  0  0
    7.8593   -5.3772   15.3569 N   0  0  0  0  0  0  0  0  0  0  0  0
    7.4412   -6.9038   16.9283 C   0  0  0  0  0  0  0  0  0  0  0  0
  1 21  4  0
  1 23  4  0
  2  5  1  0
  2 13  4  0
  2 16  4  0
  3  6  4  0
  3  7  4  0
  4 13  4  0
  4 19  4  0
  4 24  4  0
  6 23  4  0
  7 16  1  0
  7 21  4  0
  8 18  1  0
  9 20  4  0
  9 22  4  0
 10 17  1  0
 10 25  1  0
 11 16  4  0
 11 19  4  0
 12 15  4  0
 12 22  4  0
 14 24  4  0
 14 25  4  0
 15 17  4  0
 17 20  4  0
 18 23  1  0
 19 25  4  0
M  END
$$$$

 Created by Python create_sdf_string function

 25 28  0  0  0  0  0  0  0  0999 V2000
   13.1533   -5.2399   21.0682 C   0  0  0  0  0  0  0  0  0  0  0  0
   10.4729   -4.0295   17.6135 C   0  0  0  0  0  0  0  0  0  0  0  0
   10.4789   -4.3641   20.9564 C   0  0  0  0  0  0  0  0  0  0  0  0
    8.7421   -5.1412   16.3650 C   0  0  0  0  0  0  0  0  0  0  0  0
   11.4353   -2.9204   17.8044 C   0  0  0  0  0  0  0  0  0  0  0  0
   11.1529   -4.3028   22.1277 C   0  0  0  0  0  0  0  0  0  0  0  0
   11.1290   -4.8502   19.8052 C   0  0  0  0  0  0  0  0  0  0  0  0
   12.4329   -4.2159   24.4224 C   0  0  0  0  0  0  0  0  0  0  0  0
    3.4740   -9.0387   16.5022 C   0  0  0  0  0  0  0  0  0  0  0  0
    6.8384   -7.9290   17.5282 N   0  0  0  0  0  0  0  0  0  0  0  0
    9.4126   -5.9853   18.4899 C   0  0  0  0  0  0  0  0  0  0  0  0
    4.2064  -10.3242   18.3302 C   0  0  0  0  0  0  0  0  0  0  0  0
    9.6599   -4.1551   16.4796 N   0  0  0  0  0  0  0  0  0  0  0  0
    7.0644   -6.4612   15.7375 N   0  0  0  0  0  0  0  0  0  0  0  0
    5.3549   -9.6322   18.3190 C   0  0  0  0  0  0  0  0  0  0  0  0
   10.3704   -4.9638   18.6510 C   0  0  0  0  0  0  0  0  0  0  0  0
    5.5935   -8.6419   17.4234 C   0  0  0  0  0  0  0  0  0  0  0  0
   13.0726   -4.6648   23.3394 O   0  0  0  0  0  0  0  0  0  0  0  0
    8.5955   -6.0705   17.3996 C   0  0  0  0  0  0  0  0  0  0  0  0
    4.6223   -8.3832   16.5030 C   0  0  0  0  0  0  0  0  0  0  0  0
   12.4690   -5.2624   19.9024 C   0  0  0  0  0  0  0  0  0  0  0  0
    3.2548   -9.9919   17.4189 C   0  0  0  0  0  0  0  0  0  0  0  0
   12.4767   -4.7393   22.1790 C   0  0  0  0  0  0  0  0  0  0  0  0
    7.8593   -5.3772   15.3569 N   0  0  0  0  0  0  0  0  0  0  0  0
    7.4412   -6.9038   16.9283 C   0  0  0  0  0  0  0  0  0  0  0  0
  1 21  4  0
  1 23  4  0
  2  5  1  0
  2 13  4  0
  2 16  4  0
  3  6  4  0
  3  7  4  0
  4 13  4  0
  4 19  4  0
  4 24  4  0
  6 23  4  0
  7 16  1  0
  7 21  4  0
  8 18  1  0
  9 20  4  0
  9 22  4  0
 10 17  1  0
 10 25  1  0
 11 16  4  0
 11 19  4  0
 12 15  4  0
 12 22  4  0
 14 24  4  0
 14 25  4  0
 15 17  4  0
 17 20  4  0
 18 23  1  0
 19 25  4  0
M  END
$$$$

 Created by Python create_sdf_string function

 25 28  0  0  0  0  0  0  0  0999 V2000
   13.1533   -5.2399   21.0682 C   0  0  0  0  0  0  0  0  0  0  0  0
   10.4729   -4.0295   17.6135 C   0  0  0  0  0  0  0  0  0  0  0  0
   10.4789   -4.3641   20.9564 C   0  0  0  0  0  0  0  0  0  0  0  0
    8.7421   -5.1412   16.3650 C   0  0  0  0  0  0  0  0  0  0  0  0
   11.4353   -2.9204   17.8044 C   0  0  0  0  0  0  0  0  0  0  0  0
   11.1529   -4.3028   22.1277 C   0  0  0  0  0  0  0  0  0  0  0  0
   11.1290   -4.8502   19.8052 C   0  0  0  0  0  0  0  0  0  0  0  0
   12.4329   -4.2159   24.4224 C   0  0  0  0  0  0  0  0  0  0  0  0
    3.4740   -9.0387   16.5022 C   0  0  0  0  0  0  0  0  0  0  0  0
    6.8384   -7.9290   17.5282 N   0  0  0  0  0  0  0  0  0  0  0  0
    9.4126   -5.9853   18.4899 C   0  0  0  0  0  0  0  0  0  0  0  0
    4.2064  -10.3242   18.3302 C   0  0  0  0  0  0  0  0  0  0  0  0
    9.6599   -4.1551   16.4796 N   0  0  0  0  0  0  0  0  0  0  0  0
    7.0644   -6.4612   15.7375 N   0  0  0  0  0  0  0  0  0  0  0  0
    5.3549   -9.6322   18.3190 C   0  0  0  0  0  0  0  0  0  0  0  0
   10.3704   -4.9638   18.6510 C   0  0  0  0  0  0  0  0  0  0  0  0
    5.5935   -8.6419   17.4234 C   0  0  0  0  0  0  0  0  0  0  0  0
   13.0726   -4.6648   23.3394 O   0  0  0  0  0  0  0  0  0  0  0  0
    8.5955   -6.0705   17.3996 C   0  0  0  0  0  0  0  0  0  0  0  0
    4.6223   -8.3832   16.5030 C   0  0  0  0  0  0  0  0  0  0  0  0
   12.4690   -5.2624   19.9024 C   0  0  0  0  0  0  0  0  0  0  0  0
    3.2548   -9.9919   17.4189 C   0  0  0  0  0  0  0  0  0  0  0  0
   12.4767   -4.7393   22.1790 C   0  0  0  0  0  0  0  0  0  0  0  0
    7.8593   -5.3772   15.3569 N   0  0  0  0  0  0  0  0  0  0  0  0
    7.4412   -6.9038   16.9283 C   0  0  0  0  0  0  0  0  0  0  0  0
  1 21  4  0
  1 23  4  0
  2  5  1  0
  2 13  4  0
  2 16  4  0
  3  6  4  0
  3  7  4  0
  4 13  4  0
  4 19  4  0
  4 24  4  0
  6 23  4  0
  7 16  1  0
  7 21  4  0
  8 18  1  0
  9 20  4  0
  9 22  4  0
 10 17  1  0
 10 25  1  0
 11 16  4  0
 11 19  4  0
 12 15  4  0
 12 22  4  0
 14 24  4  0
 14 25  4  0
 15 17  4  0
 17 20  4  0
 18 23  1  0
 19 25  4  0
M  END
$$$$

 Created by Python create_sdf_string function

 25 28  0  0  0  0  0  0  0  0999 V2000
   13.1533   -5.2399   21.0682 C   0  0  0  0  0  0  0  0  0  0  0  0
   10.4729   -4.0295   17.6135 C   0  0  0  0  0  0  0  0  0  0  0  0
   10.4789   -4.3641   20.9564 C   0  0  0  0  0  0  0  0  0  0  0  0
    8.7421   -5.1412   16.3650 C   0  0  0  0  0  0  0  0  0  0  0  0
   11.4353   -2.9204   17.8044 C   0  0  0  0  0  0  0  0  0  0  0  0
   11.1529   -4.3028   22.1277 C   0  0  0  0  0  0  0  0  0  0  0  0
   11.1290   -4.8502   19.8052 C   0  0  0  0  0  0  0  0  0  0  0  0
   12.4329   -4.2159   24.4224 C   0  0  0  0  0  0  0  0  0  0  0  0
    3.4740   -9.0387   16.5022 C   0  0  0  0  0  0  0  0  0  0  0  0
    6.8384   -7.9290   17.5282 N   0  0  0  0  0  0  0  0  0  0  0  0
    9.4126   -5.9853   18.4899 C   0  0  0  0  0  0  0  0  0  0  0  0
    4.2064  -10.3242   18.3302 C   0  0  0  0  0  0  0  0  0  0  0  0
    9.6599   -4.1551   16.4796 N   0  0  0  0  0  0  0  0  0  0  0  0
    7.0644   -6.4612   15.7375 N   0  0  0  0  0  0  0  0  0  0  0  0
    5.3549   -9.6322   18.3190 C   0  0  0  0  0  0  0  0  0  0  0  0
   10.3704   -4.9638   18.6510 C   0  0  0  0  0  0  0  0  0  0  0  0
    5.5935   -8.6419   17.4234 C   0  0  0  0  0  0  0  0  0  0  0  0
   13.0726   -4.6648   23.3394 O   0  0  0  0  0  0  0  0  0  0  0  0
    8.5955   -6.0705   17.3996 C   0  0  0  0  0  0  0  0  0  0  0  0
    4.6223   -8.3832   16.5030 C   0  0  0  0  0  0  0  0  0  0  0  0
   12.4690   -5.2624   19.9024 C   0  0  0  0  0  0  0  0  0  0  0  0
    3.2548   -9.9919   17.4189 C   0  0  0  0  0  0  0  0  0  0  0  0
   12.4767   -4.7393   22.1790 C   0  0  0  0  0  0  0  0  0  0  0  0
    7.8593   -5.3772   15.3569 N   0  0  0  0  0  0  0  0  0  0  0  0
    7.4412   -6.9038   16.9283 C   0  0  0  0  0  0  0  0  0  0  0  0
  1 21  4  0
  1 23  4  0
  2  5  1  0
  2 13  4  0
  2 16  4  0
  3  6  4  0
  3  7  4  0
  4 13  4  0
  4 19  4  0
  4 24  4  0
  6 23  4  0
  7 16  1  0
  7 21  4  0
  8 18  1  0
  9 20  4  0
  9 22  4  0
 10 17  1  0
 10 25  1  0
 11 16  4  0
 11 19  4  0
 12 15  4  0
 12 22  4  0
 14 24  4  0
 14 25  4  0
 15 17  4  0
 17 20  4  0
 18 23  1  0
 19 25  4  0
M  END
$$$$

 Created by Python create_sdf_string function

 25 28  0  0  0  0  0  0  0  0999 V2000
   13.1533   -5.2399   21.0682 C   0  0  0  0  0  0  0  0  0  0  0  0
   10.4729   -4.0295   17.6135 C   0  0  0  0  0  0  0  0  0  0  0  0
   10.4789   -4.3641   20.9564 C   0  0  0  0  0  0  0  0  0  0  0  0
    8.7421   -5.1412   16.3650 C   0  0  0  0  0  0  0  0  0  0  0  0
   11.4353   -2.9204   17.8044 C   0  0  0  0  0  0  0  0  0  0  0  0
   11.1529   -4.3028   22.1277 C   0  0  0  0  0  0  0  0  0  0  0  0
   11.1290   -4.8502   19.8052 C   0  0  0  0  0  0  0  0  0  0  0  0
   12.4329   -4.2159   24.4224 C   0  0  0  0  0  0  0  0  0  0  0  0
    3.4740   -9.0387   16.5022 C   0  0  0  0  0  0  0  0  0  0  0  0
    6.8384   -7.9290   17.5282 N   0  0  0  0  0  0  0  0  0  0  0  0
    9.4126   -5.9853   18.4899 C   0  0  0  0  0  0  0  0  0  0  0  0
    4.2064  -10.3242   18.3302 C   0  0  0  0  0  0  0  0  0  0  0  0
    9.6599   -4.1551   16.4796 N   0  0  0  0  0  0  0  0  0  0  0  0
    7.0644   -6.4612   15.7375 N   0  0  0  0  0  0  0  0  0  0  0  0
    5.3549   -9.6322   18.3190 C   0  0  0  0  0  0  0  0  0  0  0  0
   10.3704   -4.9638   18.6510 C   0  0  0  0  0  0  0  0  0  0  0  0
    5.5935   -8.6419   17.4234 C   0  0  0  0  0  0  0  0  0  0  0  0
   13.0726   -4.6648   23.3394 O   0  0  0  0  0  0  0  0  0  0  0  0
    8.5955   -6.0705   17.3996 C   0  0  0  0  0  0  0  0  0  0  0  0
    4.6223   -8.3832   16.5030 C   0  0  0  0  0  0  0  0  0  0  0  0
   12.4690   -5.2624   19.9024 C   0  0  0  0  0  0  0  0  0  0  0  0
    3.2548   -9.9919   17.4189 C   0  0  0  0  0  0  0  0  0  0  0  0
   12.4767   -4.7393   22.1790 C   0  0  0  0  0  0  0  0  0  0  0  0
    7.8593   -5.3772   15.3569 N   0  0  0  0  0  0  0  0  0  0  0  0
    7.4412   -6.9038   16.9283 C   0  0  0  0  0  0  0  0  0  0  0  0
  1 21  4  0
  1 23  4  0
  2  5  1  0
  2 13  4  0
  2 16  4  0
  3  6  4  0
  3  7  4  0
  4 13  4  0
  4 19  4  0
  4 24  4  0
  6 23  4  0
  7 16  1  0
  7 21  4  0
  8 18  1  0
  9 20  4  0
  9 22  4  0
 10 17  1  0
 10 25  1  0
 11 16  4  0
 11 19  4  0
 12 15  4  0
 12 22  4  0
 14 24  4  0
 14 25  4  0
 15 17  4  0
 17 20  4  0
 18 23  1  0
 19 25  4  0
M  END
$$$$

 Created by Python create_sdf_string function

 25 28  0  0  0  0  0  0  0  0999 V2000
   13.1533   -5.2399   21.0682 C   0  0  0  0  0  0  0  0  0  0  0  0
   10.4729   -4.0295   17.6135 C   0  0  0  0  0  0  0  0  0  0  0  0
   10.4789   -4.3641   20.9564 C   0  0  0  0  0  0  0  0  0  0  0  0
    8.7421   -5.1412   16.3650 C   0  0  0  0  0  0  0  0  0  0  0  0
   11.4353   -2.9204   17.8044 C   0  0  0  0  0  0  0  0  0  0  0  0
   11.1529   -4.3028   22.1277 C   0  0  0  0  0  0  0  0  0  0  0  0
   11.1290   -4.8502   19.8052 C   0  0  0  0  0  0  0  0  0  0  0  0
   12.4329   -4.2159   24.4224 C   0  0  0  0  0  0  0  0  0  0  0  0
    3.4740   -9.0387   16.5022 C   0  0  0  0  0  0  0  0  0  0  0  0
    6.8384   -7.9290   17.5282 N   0  0  0  0  0  0  0  0  0  0  0  0
    9.4126   -5.9853   18.4899 C   0  0  0  0  0  0  0  0  0  0  0  0
    4.2064  -10.3242   18.3302 C   0  0  0  0  0  0  0  0  0  0  0  0
    9.6599   -4.1551   16.4796 N   0  0  0  0  0  0  0  0  0  0  0  0
    7.0644   -6.4612   15.7375 N   0  0  0  0  0  0  0  0  0  0  0  0
    5.3549   -9.6322   18.3190 C   0  0  0  0  0  0  0  0  0  0  0  0
   10.3704   -4.9638   18.6510 C   0  0  0  0  0  0  0  0  0  0  0  0
    5.5935   -8.6419   17.4234 C   0  0  0  0  0  0  0  0  0  0  0  0
   13.0726   -4.6648   23.3394 O   0  0  0  0  0  0  0  0  0  0  0  0
    8.5955   -6.0705   17.3996 C   0  0  0  0  0  0  0  0  0  0  0  0
    4.6223   -8.3832   16.5030 C   0  0  0  0  0  0  0  0  0  0  0  0
   12.4690   -5.2624   19.9024 C   0  0  0  0  0  0  0  0  0  0  0  0
    3.2548   -9.9919   17.4189 C   0  0  0  0  0  0  0  0  0  0  0  0
   12.4767   -4.7393   22.1790 C   0  0  0  0  0  0  0  0  0  0  0  0
    7.8593   -5.3772   15.3569 N   0  0  0  0  0  0  0  0  0  0  0  0
    7.4412   -6.9038   16.9283 C   0  0  0  0  0  0  0  0  0  0  0  0
  1 21  4  0
  1 23  4  0
  2  5  1  0
  2 13  4  0
  2 16  4  0
  3  6  4  0
  3  7  4  0
  4 13  4  0
  4 19  4  0
  4 24  4  0
  6 23  4  0
  7 16  1  0
  7 21  4  0
  8 18  1  0
  9 20  4  0
  9 22  4  0
 10 17  1  0
 10 25  1  0
 11 16  4  0
 11 19  4  0
 12 15  4  0
 12 22  4  0
 14 24  4  0
 14 25  4  0
 15 17  4  0
 17 20  4  0
 18 23  1  0
 19 25  4  0
M  END
$$$$

 Created by Python create_sdf_string function

 25 28  0  0  0  0  0  0  0  0999 V2000
   13.1533   -5.2399   21.0682 C   0  0  0  0  0  0  0  0  0  0  0  0
   10.4729   -4.0295   17.6135 C   0  0  0  0  0  0  0  0  0  0  0  0
   10.4789   -4.3641   20.9564 C   0  0  0  0  0  0  0  0  0  0  0  0
    8.7421   -5.1412   16.3650 C   0  0  0  0  0  0  0  0  0  0  0  0
   11.4353   -2.9204   17.8044 C   0  0  0  0  0  0  0  0  0  0  0  0
   11.1529   -4.3028   22.1277 C   0  0  0  0  0  0  0  0  0  0  0  0
   11.1290   -4.8502   19.8052 C   0  0  0  0  0  0  0  0  0  0  0  0
   12.4329   -4.2159   24.4224 C   0  0  0  0  0  0  0  0  0  0  0  0
    3.4740   -9.0387   16.5022 C   0  0  0  0  0  0  0  0  0  0  0  0
    6.8384   -7.9290   17.5282 N   0  0  0  0  0  0  0  0  0  0  0  0
    9.4126   -5.9853   18.4899 C   0  0  0  0  0  0  0  0  0  0  0  0
    4.2064  -10.3242   18.3302 C   0  0  0  0  0  0  0  0  0  0  0  0
    9.6599   -4.1551   16.4796 N   0  0  0  0  0  0  0  0  0  0  0  0
    7.0644   -6.4612   15.7375 N   0  0  0  0  0  0  0  0  0  0  0  0
    5.3549   -9.6322   18.3190 C   0  0  0  0  0  0  0  0  0  0  0  0
   10.3704   -4.9638   18.6510 C   0  0  0  0  0  0  0  0  0  0  0  0
    5.5935   -8.6419   17.4234 C   0  0  0  0  0  0  0  0  0  0  0  0
   13.0726   -4.6648   23.3394 O   0  0  0  0  0  0  0  0  0  0  0  0
    8.5955   -6.0705   17.3996 C   0  0  0  0  0  0  0  0  0  0  0  0
    4.6223   -8.3832   16.5030 C   0  0  0  0  0  0  0  0  0  0  0  0
   12.4690   -5.2624   19.9024 C   0  0  0  0  0  0  0  0  0  0  0  0
    3.2548   -9.9919   17.4189 C   0  0  0  0  0  0  0  0  0  0  0  0
   12.4767   -4.7393   22.1790 C   0  0  0  0  0  0  0  0  0  0  0  0
    7.8593   -5.3772   15.3569 N   0  0  0  0  0  0  0  0  0  0  0  0
    7.4412   -6.9038   16.9283 C   0  0  0  0  0  0  0  0  0  0  0  0
  1 21  4  0
  1 23  4  0
  2  5  1  0
  2 13  4  0
  2 16  4  0
  3  6  4  0
  3  7  4  0
  4 13  4  0
  4 19  4  0
  4 24  4  0
  6 23  4  0
  7 16  1  0
  7 21  4  0
  8 18  1  0
  9 20  4  0
  9 22  4  0
 10 17  1  0
 10 25  1  0
 11 16  4  0
 11 19  4  0
 12 15  4  0
 12 22  4  0
 14 24  4  0
 14 25  4  0
 15 17  4  0
 17 20  4  0
 18 23  1  0
 19 25  4  0
M  END
$$$$

 Created by Python create_sdf_string function

 25 28  0  0  0  0  0  0  0  0999 V2000
   13.1533   -5.2399   21.0682 C   0  0  0  0  0  0  0  0  0  0  0  0
   10.4729   -4.0295   17.6135 C   0  0  0  0  0  0  0  0  0  0  0  0
   10.4789   -4.3641   20.9564 C   0  0  0  0  0  0  0  0  0  0  0  0
    8.7421   -5.1412   16.3650 C   0  0  0  0  0  0  0  0  0  0  0  0
   11.4353   -2.9204   17.8044 C   0  0  0  0  0  0  0  0  0  0  0  0
   11.1529   -4.3028   22.1277 C   0  0  0  0  0  0  0  0  0  0  0  0
   11.1290   -4.8502   19.8052 C   0  0  0  0  0  0  0  0  0  0  0  0
   12.4329   -4.2159   24.4224 C   0  0  0  0  0  0  0  0  0  0  0  0
    3.4740   -9.0387   16.5022 C   0  0  0  0  0  0  0  0  0  0  0  0
    6.8384   -7.9290   17.5282 N   0  0  0  0  0  0  0  0  0  0  0  0
    9.4126   -5.9853   18.4899 C   0  0  0  0  0  0  0  0  0  0  0  0
    4.2064  -10.3242   18.3302 C   0  0  0  0  0  0  0  0  0  0  0  0
    9.6599   -4.1551   16.4796 N   0  0  0  0  0  0  0  0  0  0  0  0
    7.0644   -6.4612   15.7375 N   0  0  0  0  0  0  0  0  0  0  0  0
    5.3549   -9.6322   18.3190 C   0  0  0  0  0  0  0  0  0  0  0  0
   10.3704   -4.9638   18.6510 C   0  0  0  0  0  0  0  0  0  0  0  0
    5.5935   -8.6419   17.4234 C   0  0  0  0  0  0  0  0  0  0  0  0
   13.0726   -4.6648   23.3394 O   0  0  0  0  0  0  0  0  0  0  0  0
    8.5955   -6.0705   17.3996 C   0  0  0  0  0  0  0  0  0  0  0  0
    4.6223   -8.3832   16.5030 C   0  0  0  0  0  0  0  0  0  0  0  0
   12.4690   -5.2624   19.9024 C   0  0  0  0  0  0  0  0  0  0  0  0
    3.2548   -9.9919   17.4189 C   0  0  0  0  0  0  0  0  0  0  0  0
   12.4767   -4.7393   22.1790 C   0  0  0  0  0  0  0  0  0  0  0  0
    7.8593   -5.3772   15.3569 N   0  0  0  0  0  0  0  0  0  0  0  0
    7.4412   -6.9038   16.9283 C   0  0  0  0  0  0  0  0  0  0  0  0
  1 21  4  0
  1 23  4  0
  2  5  1  0
  2 13  4  0
  2 16  4  0
  3  6  4  0
  3  7  4  0
  4 13  4  0
  4 19  4  0
  4 24  4  0
  6 23  4  0
  7 16  1  0
  7 21  4  0
  8 18  1  0
  9 20  4  0
  9 22  4  0
 10 17  1  0
 10 25  1  0
 11 16  4  0
 11 19  4  0
 12 15  4  0
 12 22  4  0
 14 24  4  0
 14 25  4  0
 15 17  4  0
 17 20  4  0
 18 23  1  0
 19 25  4  0
M  END
$$$$

 Created by Python create_sdf_string function

 25 28  0  0  0  0  0  0  0  0999 V2000
   13.1533   -5.2399   21.0682 C   0  0  0  0  0  0  0  0  0  0  0  0
   10.4729   -4.0295   17.6135 C   0  0  0  0  0  0  0  0  0  0  0  0
   10.4789   -4.3641   20.9564 C   0  0  0  0  0  0  0  0  0  0  0  0
    8.7421   -5.1412   16.3650 C   0  0  0  0  0  0  0  0  0  0  0  0
   11.4353   -2.9204   17.8044 C   0  0  0  0  0  0  0  0  0  0  0  0
   11.1529   -4.3028   22.1277 C   0  0  0  0  0  0  0  0  0  0  0  0
   11.1290   -4.8502   19.8052 C   0  0  0  0  0  0  0  0  0  0  0  0
   12.4329   -4.2159   24.4224 C   0  0  0  0  0  0  0  0  0  0  0  0
    3.4740   -9.0387   16.5022 C   0  0  0  0  0  0  0  0  0  0  0  0
    6.8384   -7.9290   17.5282 N   0  0  0  0  0  0  0  0  0  0  0  0
    9.4126   -5.9853   18.4899 C   0  0  0  0  0  0  0  0  0  0  0  0
    4.2064  -10.3242   18.3302 C   0  0  0  0  0  0  0  0  0  0  0  0
    9.6599   -4.1551   16.4796 N   0  0  0  0  0  0  0  0  0  0  0  0
    7.0644   -6.4612   15.7375 N   0  0  0  0  0  0  0  0  0  0  0  0
    5.3549   -9.6322   18.3190 C   0  0  0  0  0  0  0  0  0  0  0  0
   10.3704   -4.9638   18.6510 C   0  0  0  0  0  0  0  0  0  0  0  0
    5.5935   -8.6419   17.4234 C   0  0  0  0  0  0  0  0  0  0  0  0
   13.0726   -4.6648   23.3394 O   0  0  0  0  0  0  0  0  0  0  0  0
    8.5955   -6.0705   17.3996 C   0  0  0  0  0  0  0  0  0  0  0  0
    4.6223   -8.3832   16.5030 C   0  0  0  0  0  0  0  0  0  0  0  0
   12.4690   -5.2624   19.9024 C   0  0  0  0  0  0  0  0  0  0  0  0
    3.2548   -9.9919   17.4189 C   0  0  0  0  0  0  0  0  0  0  0  0
   12.4767   -4.7393   22.1790 C   0  0  0  0  0  0  0  0  0  0  0  0
    7.8593   -5.3772   15.3569 N   0  0  0  0  0  0  0  0  0  0  0  0
    7.4412   -6.9038   16.9283 C   0  0  0  0  0  0  0  0  0  0  0  0
  1 21  4  0
  1 23  4  0
  2  5  1  0
  2 13  4  0
  2 16  4  0
  3  6  4  0
  3  7  4  0
  4 13  4  0
  4 19  4  0
  4 24  4  0
  6 23  4  0
  7 16  1  0
  7 21  4  0
  8 18  1  0
  9 20  4  0
  9 22  4  0
 10 17  1  0
 10 25  1  0
 11 16  4  0
 11 19  4  0
 12 15  4  0
 12 22  4  0
 14 24  4  0
 14 25  4  0
 15 17  4  0
 17 20  4  0
 18 23  1  0
 19 25  4  0
M  END
$$$$

 Created by Python create_sdf_string function

 25 28  0  0  0  0  0  0  0  0999 V2000
   13.1533   -5.2399   21.0682 C   0  0  0  0  0  0  0  0  0  0  0  0
   10.4729   -4.0295   17.6135 C   0  0  0  0  0  0  0  0  0  0  0  0
   10.4789   -4.3641   20.9564 C   0  0  0  0  0  0  0  0  0  0  0  0
    8.7421   -5.1412   16.3650 C   0  0  0  0  0  0  0  0  0  0  0  0
   11.4353   -2.9204   17.8044 C   0  0  0  0  0  0  0  0  0  0  0  0
   11.1529   -4.3028   22.1277 C   0  0  0  0  0  0  0  0  0  0  0  0
   11.1290   -4.8502   19.8052 C   0  0  0  0  0  0  0  0  0  0  0  0
   12.4329   -4.2159   24.4224 C   0  0  0  0  0  0  0  0  0  0  0  0
    3.4740   -9.0387   16.5022 C   0  0  0  0  0  0  0  0  0  0  0  0
    6.8384   -7.9290   17.5282 N   0  0  0  0  0  0  0  0  0  0  0  0
    9.4126   -5.9853   18.4899 C   0  0  0  0  0  0  0  0  0  0  0  0
    4.2064  -10.3242   18.3302 C   0  0  0  0  0  0  0  0  0  0  0  0
    9.6599   -4.1551   16.4796 N   0  0  0  0  0  0  0  0  0  0  0  0
    7.0644   -6.4612   15.7375 N   0  0  0  0  0  0  0  0  0  0  0  0
    5.3549   -9.6322   18.3190 C   0  0  0  0  0  0  0  0  0  0  0  0
   10.3704   -4.9638   18.6510 C   0  0  0  0  0  0  0  0  0  0  0  0
    5.5935   -8.6419   17.4234 C   0  0  0  0  0  0  0  0  0  0  0  0
   13.0726   -4.6648   23.3394 O   0  0  0  0  0  0  0  0  0  0  0  0
    8.5955   -6.0705   17.3996 C   0  0  0  0  0  0  0  0  0  0  0  0
    4.6223   -8.3832   16.5030 C   0  0  0  0  0  0  0  0  0  0  0  0
   12.4690   -5.2624   19.9024 C   0  0  0  0  0  0  0  0  0  0  0  0
    3.2548   -9.9919   17.4189 C   0  0  0  0  0  0  0  0  0  0  0  0
   12.4767   -4.7393   22.1790 C   0  0  0  0  0  0  0  0  0  0  0  0
    7.8593   -5.3772   15.3569 N   0  0  0  0  0  0  0  0  0  0  0  0
    7.4412   -6.9038   16.9283 C   0  0  0  0  0  0  0  0  0  0  0  0
  1 21  4  0
  1 23  4  0
  2  5  1  0
  2 13  4  0
  2 16  4  0
  3  6  4  0
  3  7  4  0
  4 13  4  0
  4 19  4  0
  4 24  4  0
  6 23  4  0
  7 16  1  0
  7 21  4  0
  8 18  1  0
  9 20  4  0
  9 22  4  0
 10 17  1  0
 10 25  1  0
 11 16  4  0
 11 19  4  0
 12 15  4  0
 12 22  4  0
 14 24  4  0
 14 25  4  0
 15 17  4  0
 17 20  4  0
 18 23  1  0
 19 25  4  0
M  END
$$$$

 Created by Python create_sdf_string function

 25 28  0  0  0  0  0  0  0  0999 V2000
   13.1533   -5.2399   21.0682 C   0  0  0  0  0  0  0  0  0  0  0  0
   10.4729   -4.0295   17.6135 C   0  0  0  0  0  0  0  0  0  0  0  0
   10.4789   -4.3641   20.9564 C   0  0  0  0  0  0  0  0  0  0  0  0
    8.7421   -5.1412   16.3650 C   0  0  0  0  0  0  0  0  0  0  0  0
   11.4353   -2.9204   17.8044 C   0  0  0  0  0  0  0  0  0  0  0  0
   11.1529   -4.3028   22.1277 C   0  0  0  0  0  0  0  0  0  0  0  0
   11.1290   -4.8502   19.8052 C   0  0  0  0  0  0  0  0  0  0  0  0
   12.4329   -4.2159   24.4224 C   0  0  0  0  0  0  0  0  0  0  0  0
    3.4740   -9.0387   16.5022 C   0  0  0  0  0  0  0  0  0  0  0  0
    6.8384   -7.9290   17.5282 N   0  0  0  0  0  0  0  0  0  0  0  0
    9.4126   -5.9853   18.4899 C   0  0  0  0  0  0  0  0  0  0  0  0
    4.2064  -10.3242   18.3302 C   0  0  0  0  0  0  0  0  0  0  0  0
    9.6599   -4.1551   16.4796 N   0  0  0  0  0  0  0  0  0  0  0  0
    7.0644   -6.4612   15.7375 N   0  0  0  0  0  0  0  0  0  0  0  0
    5.3549   -9.6322   18.3190 C   0  0  0  0  0  0  0  0  0  0  0  0
   10.3704   -4.9638   18.6510 C   0  0  0  0  0  0  0  0  0  0  0  0
    5.5935   -8.6419   17.4234 C   0  0  0  0  0  0  0  0  0  0  0  0
   13.0726   -4.6648   23.3394 O   0  0  0  0  0  0  0  0  0  0  0  0
    8.5955   -6.0705   17.3996 C   0  0  0  0  0  0  0  0  0  0  0  0
    4.6223   -8.3832   16.5030 C   0  0  0  0  0  0  0  0  0  0  0  0
   12.4690   -5.2624   19.9024 C   0  0  0  0  0  0  0  0  0  0  0  0
    3.2548   -9.9919   17.4189 C   0  0  0  0  0  0  0  0  0  0  0  0
   12.4767   -4.7393   22.1790 C   0  0  0  0  0  0  0  0  0  0  0  0
    7.8593   -5.3772   15.3569 N   0  0  0  0  0  0  0  0  0  0  0  0
    7.4412   -6.9038   16.9283 C   0  0  0  0  0  0  0  0  0  0  0  0
  1 21  4  0
  1 23  4  0
  2  5  1  0
  2 13  4  0
  2 16  4  0
  3  6  4  0
  3  7  4  0
  4 13  4  0
  4 19  4  0
  4 24  4  0
  6 23  4  0
  7 16  1  0
  7 21  4  0
  8 18  1  0
  9 20  4  0
  9 22  4  0
 10 17  1  0
 10 25  1  0
 11 16  4  0
 11 19  4  0
 12 15  4  0
 12 22  4  0
 14 24  4  0
 14 25  4  0
 15 17  4  0
 17 20  4  0
 18 23  1  0
 19 25  4  0
M  END
$$$$

 Created by Python create_sdf_string function

 25 28  0  0  0  0  0  0  0  0999 V2000
   13.1533   -5.2399   21.0682 C   0  0  0  0  0  0  0  0  0  0  0  0
   10.4729   -4.0295   17.6135 C   0  0  0  0  0  0  0  0  0  0  0  0
   10.4789   -4.3641   20.9564 C   0  0  0  0  0  0  0  0  0  0  0  0
    8.7421   -5.1412   16.3650 C   0  0  0  0  0  0  0  0  0  0  0  0
   11.4353   -2.9204   17.8044 C   0  0  0  0  0  0  0  0  0  0  0  0
   11.1529   -4.3028   22.1277 C   0  0  0  0  0  0  0  0  0  0  0  0
   11.1290   -4.8502   19.8052 C   0  0  0  0  0  0  0  0  0  0  0  0
   12.4329   -4.2159   24.4224 C   0  0  0  0  0  0  0  0  0  0  0  0
    3.4740   -9.0387   16.5022 C   0  0  0  0  0  0  0  0  0  0  0  0
    6.8384   -7.9290   17.5282 N   0  0  0  0  0  0  0  0  0  0  0  0
    9.4126   -5.9853   18.4899 C   0  0  0  0  0  0  0  0  0  0  0  0
    4.2064  -10.3242   18.3302 C   0  0  0  0  0  0  0  0  0  0  0  0
    9.6599   -4.1551   16.4796 N   0  0  0  0  0  0  0  0  0  0  0  0
    7.0644   -6.4612   15.7375 N   0  0  0  0  0  0  0  0  0  0  0  0
    5.3549   -9.6322   18.3190 C   0  0  0  0  0  0  0  0  0  0  0  0
   10.3704   -4.9638   18.6510 C   0  0  0  0  0  0  0  0  0  0  0  0
    5.5935   -8.6419   17.4234 C   0  0  0  0  0  0  0  0  0  0  0  0
   13.0726   -4.6648   23.3394 O   0  0  0  0  0  0  0  0  0  0  0  0
    8.5955   -6.0705   17.3996 C   0  0  0  0  0  0  0  0  0  0  0  0
    4.6223   -8.3832   16.5030 C   0  0  0  0  0  0  0  0  0  0  0  0
   12.4690   -5.2624   19.9024 C   0  0  0  0  0  0  0  0  0  0  0  0
    3.2548   -9.9919   17.4189 C   0  0  0  0  0  0  0  0  0  0  0  0
   12.4767   -4.7393   22.1790 C   0  0  0  0  0  0  0  0  0  0  0  0
    7.8593   -5.3772   15.3569 N   0  0  0  0  0  0  0  0  0  0  0  0
    7.4412   -6.9038   16.9283 C   0  0  0  0  0  0  0  0  0  0  0  0
  1 21  4  0
  1 23  4  0
  2  5  1  0
  2 13  4  0
  2 16  4  0
  3  6  4  0
  3  7  4  0
  4 13  4  0
  4 19  4  0
  4 24  4  0
  6 23  4  0
  7 16  1  0
  7 21  4  0
  8 18  1  0
  9 20  4  0
  9 22  4  0
 10 17  1  0
 10 25  1  0
 11 16  4  0
 11 19  4  0
 12 15  4  0
 12 22  4  0
 14 24  4  0
 14 25  4  0
 15 17  4  0
 17 20  4  0
 18 23  1  0
 19 25  4  0
M  END
$$$$

 Created by Python create_sdf_string function

 25 28  0  0  0  0  0  0  0  0999 V2000
   13.1533   -5.2399   21.0682 C   0  0  0  0  0  0  0  0  0  0  0  0
   10.4729   -4.0295   17.6135 C   0  0  0  0  0  0  0  0  0  0  0  0
   10.4789   -4.3641   20.9564 C   0  0  0  0  0  0  0  0  0  0  0  0
    8.7421   -5.1412   16.3650 C   0  0  0  0  0  0  0  0  0  0  0  0
   11.4353   -2.9204   17.8044 C   0  0  0  0  0  0  0  0  0  0  0  0
   11.1529   -4.3028   22.1277 C   0  0  0  0  0  0  0  0  0  0  0  0
   11.1290   -4.8502   19.8052 C   0  0  0  0  0  0  0  0  0  0  0  0
   12.4329   -4.2159   24.4224 C   0  0  0  0  0  0  0  0  0  0  0  0
    3.4740   -9.0387   16.5022 C   0  0  0  0  0  0  0  0  0  0  0  0
    6.8384   -7.9290   17.5282 N   0  0  0  0  0  0  0  0  0  0  0  0
    9.4126   -5.9853   18.4899 C   0  0  0  0  0  0  0  0  0  0  0  0
    4.2064  -10.3242   18.3302 C   0  0  0  0  0  0  0  0  0  0  0  0
    9.6599   -4.1551   16.4796 N   0  0  0  0  0  0  0  0  0  0  0  0
    7.0644   -6.4612   15.7375 N   0  0  0  0  0  0  0  0  0  0  0  0
    5.3549   -9.6322   18.3190 C   0  0  0  0  0  0  0  0  0  0  0  0
   10.3704   -4.9638   18.6510 C   0  0  0  0  0  0  0  0  0  0  0  0
    5.5935   -8.6419   17.4234 C   0  0  0  0  0  0  0  0  0  0  0  0
   13.0726   -4.6648   23.3394 O   0  0  0  0  0  0  0  0  0  0  0  0
    8.5955   -6.0705   17.3996 C   0  0  0  0  0  0  0  0  0  0  0  0
    4.6223   -8.3832   16.5030 C   0  0  0  0  0  0  0  0  0  0  0  0
   12.4690   -5.2624   19.9024 C   0  0  0  0  0  0  0  0  0  0  0  0
    3.2548   -9.9919   17.4189 C   0  0  0  0  0  0  0  0  0  0  0  0
   12.4767   -4.7393   22.1790 C   0  0  0  0  0  0  0  0  0  0  0  0
    7.8593   -5.3772   15.3569 N   0  0  0  0  0  0  0  0  0  0  0  0
    7.4412   -6.9038   16.9283 C   0  0  0  0  0  0  0  0  0  0  0  0
  1 21  4  0
  1 23  4  0
  2  5  1  0
  2 13  4  0
  2 16  4  0
  3  6  4  0
  3  7  4  0
  4 13  4  0
  4 19  4  0
  4 24  4  0
  6 23  4  0
  7 16  1  0
  7 21  4  0
  8 18  1  0
  9 20  4  0
  9 22  4  0
 10 17  1  0
 10 25  1  0
 11 16  4  0
 11 19  4  0
 12 15  4  0
 12 22  4  0
 14 24  4  0
 14 25  4  0
 15 17  4  0
 17 20  4  0
 18 23  1  0
 19 25  4  0
M  END
$$$$

 Created by Python create_sdf_string function

 25 28  0  0  0  0  0  0  0  0999 V2000
   13.1533   -5.2399   21.0682 C   0  0  0  0  0  0  0  0  0  0  0  0
   10.4729   -4.0295   17.6135 C   0  0  0  0  0  0  0  0  0  0  0  0
   10.4789   -4.3641   20.9564 C   0  0  0  0  0  0  0  0  0  0  0  0
    8.7421   -5.1412   16.3650 C   0  0  0  0  0  0  0  0  0  0  0  0
   11.4353   -2.9204   17.8044 C   0  0  0  0  0  0  0  0  0  0  0  0
   11.1529   -4.3028   22.1277 C   0  0  0  0  0  0  0  0  0  0  0  0
   11.1290   -4.8502   19.8052 C   0  0  0  0  0  0  0  0  0  0  0  0
   12.4329   -4.2159   24.4224 C   0  0  0  0  0  0  0  0  0  0  0  0
    3.4740   -9.0387   16.5022 C   0  0  0  0  0  0  0  0  0  0  0  0
    6.8384   -7.9290   17.5282 N   0  0  0  0  0  0  0  0  0  0  0  0
    9.4126   -5.9853   18.4899 C   0  0  0  0  0  0  0  0  0  0  0  0
    4.2064  -10.3242   18.3302 C   0  0  0  0  0  0  0  0  0  0  0  0
    9.6599   -4.1551   16.4796 N   0  0  0  0  0  0  0  0  0  0  0  0
    7.0644   -6.4612   15.7375 N   0  0  0  0  0  0  0  0  0  0  0  0
    5.3549   -9.6322   18.3190 C   0  0  0  0  0  0  0  0  0  0  0  0
   10.3704   -4.9638   18.6510 C   0  0  0  0  0  0  0  0  0  0  0  0
    5.5935   -8.6419   17.4234 C   0  0  0  0  0  0  0  0  0  0  0  0
   13.0726   -4.6648   23.3394 O   0  0  0  0  0  0  0  0  0  0  0  0
    8.5955   -6.0705   17.3996 C   0  0  0  0  0  0  0  0  0  0  0  0
    4.6223   -8.3832   16.5030 C   0  0  0  0  0  0  0  0  0  0  0  0
   12.4690   -5.2624   19.9024 C   0  0  0  0  0  0  0  0  0  0  0  0
    3.2548   -9.9919   17.4189 C   0  0  0  0  0  0  0  0  0  0  0  0
   12.4767   -4.7393   22.1790 C   0  0  0  0  0  0  0  0  0  0  0  0
    7.8593   -5.3772   15.3569 N   0  0  0  0  0  0  0  0  0  0  0  0
    7.4412   -6.9038   16.9283 C   0  0  0  0  0  0  0  0  0  0  0  0
  1 21  4  0
  1 23  4  0
  2  5  1  0
  2 13  4  0
  2 16  4  0
  3  6  4  0
  3  7  4  0
  4 13  4  0
  4 19  4  0
  4 24  4  0
  6 23  4  0
  7 16  1  0
  7 21  4  0
  8 18  1  0
  9 20  4  0
  9 22  4  0
 10 17  1  0
 10 25  1  0
 11 16  4  0
 11 19  4  0
 12 15  4  0
 12 22  4  0
 14 24  4  0
 14 25  4  0
 15 17  4  0
 17 20  4  0
 18 23  1  0
 19 25  4  0
M  END
$$$$

 Created by Python create_sdf_string function

 25 28  0  0  0  0  0  0  0  0999 V2000
   13.1533   -5.2399   21.0682 C   0  0  0  0  0  0  0  0  0  0  0  0
   10.4729   -4.0295   17.6135 C   0  0  0  0  0  0  0  0  0  0  0  0
   10.4789   -4.3641   20.9564 C   0  0  0  0  0  0  0  0  0  0  0  0
    8.7421   -5.1412   16.3650 C   0  0  0  0  0  0  0  0  0  0  0  0
   11.4353   -2.9204   17.8044 C   0  0  0  0  0  0  0  0  0  0  0  0
   11.1529   -4.3028   22.1277 C   0  0  0  0  0  0  0  0  0  0  0  0
   11.1290   -4.8502   19.8052 C   0  0  0  0  0  0  0  0  0  0  0  0
   12.4329   -4.2159   24.4224 C   0  0  0  0  0  0  0  0  0  0  0  0
    3.4740   -9.0387   16.5022 C   0  0  0  0  0  0  0  0  0  0  0  0
    6.8384   -7.9290   17.5282 N   0  0  0  0  0  0  0  0  0  0  0  0
    9.4126   -5.9853   18.4899 C   0  0  0  0  0  0  0  0  0  0  0  0
    4.2064  -10.3242   18.3302 C   0  0  0  0  0  0  0  0  0  0  0  0
    9.6599   -4.1551   16.4796 N   0  0  0  0  0  0  0  0  0  0  0  0
    7.0644   -6.4612   15.7375 N   0  0  0  0  0  0  0  0  0  0  0  0
    5.3549   -9.6322   18.3190 C   0  0  0  0  0  0  0  0  0  0  0  0
   10.3704   -4.9638   18.6510 C   0  0  0  0  0  0  0  0  0  0  0  0
    5.5935   -8.6419   17.4234 C   0  0  0  0  0  0  0  0  0  0  0  0
   13.0726   -4.6648   23.3394 O   0  0  0  0  0  0  0  0  0  0  0  0
    8.5955   -6.0705   17.3996 C   0  0  0  0  0  0  0  0  0  0  0  0
    4.6223   -8.3832   16.5030 C   0  0  0  0  0  0  0  0  0  0  0  0
   12.4690   -5.2624   19.9024 C   0  0  0  0  0  0  0  0  0  0  0  0
    3.2548   -9.9919   17.4189 C   0  0  0  0  0  0  0  0  0  0  0  0
   12.4767   -4.7393   22.1790 C   0  0  0  0  0  0  0  0  0  0  0  0
    7.8593   -5.3772   15.3569 N   0  0  0  0  0  0  0  0  0  0  0  0
    7.4412   -6.9038   16.9283 C   0  0  0  0  0  0  0  0  0  0  0  0
  1 21  4  0
  1 23  4  0
  2  5  1  0
  2 13  4  0
  2 16  4  0
  3  6  4  0
  3  7  4  0
  4 13  4  0
  4 19  4  0
  4 24  4  0
  6 23  4  0
  7 16  1  0
  7 21  4  0
  8 18  1  0
  9 20  4  0
  9 22  4  0
 10 17  1  0
 10 25  1  0
 11 16  4  0
 11 19  4  0
 12 15  4  0
 12 22  4  0
 14 24  4  0
 14 25  4  0
 15 17  4  0
 17 20  4  0
 18 23  1  0
 19 25  4  0
M  END
$$$$

 Created by Python create_sdf_string function

 25 28  0  0  0  0  0  0  0  0999 V2000
   13.1533   -5.2399   21.0682 C   0  0  0  0  0  0  0  0  0  0  0  0
   10.4729   -4.0295   17.6135 C   0  0  0  0  0  0  0  0  0  0  0  0
   10.4789   -4.3641   20.9564 C   0  0  0  0  0  0  0  0  0  0  0  0
    8.7421   -5.1412   16.3650 C   0  0  0  0  0  0  0  0  0  0  0  0
   11.4353   -2.9204   17.8044 C   0  0  0  0  0  0  0  0  0  0  0  0
   11.1529   -4.3028   22.1277 C   0  0  0  0  0  0  0  0  0  0  0  0
   11.1290   -4.8502   19.8052 C   0  0  0  0  0  0  0  0  0  0  0  0
   12.4329   -4.2159   24.4224 C   0  0  0  0  0  0  0  0  0  0  0  0
    3.4740   -9.0387   16.5022 C   0  0  0  0  0  0  0  0  0  0  0  0
    6.8384   -7.9290   17.5282 N   0  0  0  0  0  0  0  0  0  0  0  0
    9.4126   -5.9853   18.4899 C   0  0  0  0  0  0  0  0  0  0  0  0
    4.2064  -10.3242   18.3302 C   0  0  0  0  0  0  0  0  0  0  0  0
    9.6599   -4.1551   16.4796 N   0  0  0  0  0  0  0  0  0  0  0  0
    7.0644   -6.4612   15.7375 N   0  0  0  0  0  0  0  0  0  0  0  0
    5.3549   -9.6322   18.3190 C   0  0  0  0  0  0  0  0  0  0  0  0
   10.3704   -4.9638   18.6510 C   0  0  0  0  0  0  0  0  0  0  0  0
    5.5935   -8.6419   17.4234 C   0  0  0  0  0  0  0  0  0  0  0  0
   13.0726   -4.6648   23.3394 O   0  0  0  0  0  0  0  0  0  0  0  0
    8.5955   -6.0705   17.3996 C   0  0  0  0  0  0  0  0  0  0  0  0
    4.6223   -8.3832   16.5030 C   0  0  0  0  0  0  0  0  0  0  0  0
   12.4690   -5.2624   19.9024 C   0  0  0  0  0  0  0  0  0  0  0  0
    3.2548   -9.9919   17.4189 C   0  0  0  0  0  0  0  0  0  0  0  0
   12.4767   -4.7393   22.1790 C   0  0  0  0  0  0  0  0  0  0  0  0
    7.8593   -5.3772   15.3569 N   0  0  0  0  0  0  0  0  0  0  0  0
    7.4412   -6.9038   16.9283 C   0  0  0  0  0  0  0  0  0  0  0  0
  1 21  4  0
  1 23  4  0
  2  5  1  0
  2 13  4  0
  2 16  4  0
  3  6  4  0
  3  7  4  0
  4 13  4  0
  4 19  4  0
  4 24  4  0
  6 23  4  0
  7 16  1  0
  7 21  4  0
  8 18  1  0
  9 20  4  0
  9 22  4  0
 10 17  1  0
 10 25  1  0
 11 16  4  0
 11 19  4  0
 12 15  4  0
 12 22  4  0
 14 24  4  0
 14 25  4  0
 15 17  4  0
 17 20  4  0
 18 23  1  0
 19 25  4  0
M  END
$$$$

 Created by Python create_sdf_string function

 25 28  0  0  0  0  0  0  0  0999 V2000
   13.1533   -5.2399   21.0682 C   0  0  0  0  0  0  0  0  0  0  0  0
   10.4729   -4.0295   17.6135 C   0  0  0  0  0  0  0  0  0  0  0  0
   10.4789   -4.3641   20.9564 C   0  0  0  0  0  0  0  0  0  0  0  0
    8.7421   -5.1412   16.3650 C   0  0  0  0  0  0  0  0  0  0  0  0
   11.4353   -2.9204   17.8044 C   0  0  0  0  0  0  0  0  0  0  0  0
   11.1529   -4.3028   22.1277 C   0  0  0  0  0  0  0  0  0  0  0  0
   11.1290   -4.8502   19.8052 C   0  0  0  0  0  0  0  0  0  0  0  0
   12.4329   -4.2159   24.4224 C   0  0  0  0  0  0  0  0  0  0  0  0
    3.4740   -9.0387   16.5022 C   0  0  0  0  0  0  0  0  0  0  0  0
    6.8384   -7.9290   17.5282 N   0  0  0  0  0  0  0  0  0  0  0  0
    9.4126   -5.9853   18.4899 C   0  0  0  0  0  0  0  0  0  0  0  0
    4.2064  -10.3242   18.3302 C   0  0  0  0  0  0  0  0  0  0  0  0
    9.6599   -4.1551   16.4796 N   0  0  0  0  0  0  0  0  0  0  0  0
    7.0644   -6.4612   15.7375 N   0  0  0  0  0  0  0  0  0  0  0  0
    5.3549   -9.6322   18.3190 C   0  0  0  0  0  0  0  0  0  0  0  0
   10.3704   -4.9638   18.6510 C   0  0  0  0  0  0  0  0  0  0  0  0
    5.5935   -8.6419   17.4234 C   0  0  0  0  0  0  0  0  0  0  0  0
   13.0726   -4.6648   23.3394 O   0  0  0  0  0  0  0  0  0  0  0  0
    8.5955   -6.0705   17.3996 C   0  0  0  0  0  0  0  0  0  0  0  0
    4.6223   -8.3832   16.5030 C   0  0  0  0  0  0  0  0  0  0  0  0
   12.4690   -5.2624   19.9024 C   0  0  0  0  0  0  0  0  0  0  0  0
    3.2548   -9.9919   17.4189 C   0  0  0  0  0  0  0  0  0  0  0  0
   12.4767   -4.7393   22.1790 C   0  0  0  0  0  0  0  0  0  0  0  0
    7.8593   -5.3772   15.3569 N   0  0  0  0  0  0  0  0  0  0  0  0
    7.4412   -6.9038   16.9283 C   0  0  0  0  0  0  0  0  0  0  0  0
  1 21  4  0
  1 23  4  0
  2  5  1  0
  2 13  4  0
  2 16  4  0
  3  6  4  0
  3  7  4  0
  4 13  4  0
  4 19  4  0
  4 24  4  0
  6 23  4  0
  7 16  1  0
  7 21  4  0
  8 18  1  0
  9 20  4  0
  9 22  4  0
 10 17  1  0
 10 25  1  0
 11 16  4  0
 11 19  4  0
 12 15  4  0
 12 22  4  0
 14 24  4  0
 14 25  4  0
 15 17  4  0
 17 20  4  0
 18 23  1  0
 19 25  4  0
M  END
$$$$

 Created by Python create_sdf_string function

 25 28  0  0  0  0  0  0  0  0999 V2000
   13.1533   -5.2399   21.0682 C   0  0  0  0  0  0  0  0  0  0  0  0
   10.4729   -4.0295   17.6135 C   0  0  0  0  0  0  0  0  0  0  0  0
   10.4789   -4.3641   20.9564 C   0  0  0  0  0  0  0  0  0  0  0  0
    8.7421   -5.1412   16.3650 C   0  0  0  0  0  0  0  0  0  0  0  0
   11.4353   -2.9204   17.8044 C   0  0  0  0  0  0  0  0  0  0  0  0
   11.1529   -4.3028   22.1277 C   0  0  0  0  0  0  0  0  0  0  0  0
   11.1290   -4.8502   19.8052 C   0  0  0  0  0  0  0  0  0  0  0  0
   12.4329   -4.2159   24.4224 C   0  0  0  0  0  0  0  0  0  0  0  0
    3.4740   -9.0387   16.5022 C   0  0  0  0  0  0  0  0  0  0  0  0
    6.8384   -7.9290   17.5282 N   0  0  0  0  0  0  0  0  0  0  0  0
    9.4126   -5.9853   18.4899 C   0  0  0  0  0  0  0  0  0  0  0  0
    4.2064  -10.3242   18.3302 C   0  0  0  0  0  0  0  0  0  0  0  0
    9.6599   -4.1551   16.4796 N   0  0  0  0  0  0  0  0  0  0  0  0
    7.0644   -6.4612   15.7375 N   0  0  0  0  0  0  0  0  0  0  0  0
    5.3549   -9.6322   18.3190 C   0  0  0  0  0  0  0  0  0  0  0  0
   10.3704   -4.9638   18.6510 C   0  0  0  0  0  0  0  0  0  0  0  0
    5.5935   -8.6419   17.4234 C   0  0  0  0  0  0  0  0  0  0  0  0
   13.0726   -4.6648   23.3394 O   0  0  0  0  0  0  0  0  0  0  0  0
    8.5955   -6.0705   17.3996 C   0  0  0  0  0  0  0  0  0  0  0  0
    4.6223   -8.3832   16.5030 C   0  0  0  0  0  0  0  0  0  0  0  0
   12.4690   -5.2624   19.9024 C   0  0  0  0  0  0  0  0  0  0  0  0
    3.2548   -9.9919   17.4189 C   0  0  0  0  0  0  0  0  0  0  0  0
   12.4767   -4.7393   22.1790 C   0  0  0  0  0  0  0  0  0  0  0  0
    7.8593   -5.3772   15.3569 N   0  0  0  0  0  0  0  0  0  0  0  0
    7.4412   -6.9038   16.9283 C   0  0  0  0  0  0  0  0  0  0  0  0
  1 21  4  0
  1 23  4  0
  2  5  1  0
  2 13  4  0
  2 16  4  0
  3  6  4  0
  3  7  4  0
  4 13  4  0
  4 19  4  0
  4 24  4  0
  6 23  4  0
  7 16  1  0
  7 21  4  0
  8 18  1  0
  9 20  4  0
  9 22  4  0
 10 17  1  0
 10 25  1  0
 11 16  4  0
 11 19  4  0
 12 15  4  0
 12 22  4  0
 14 24  4  0
 14 25  4  0
 15 17  4  0
 17 20  4  0
 18 23  1  0
 19 25  4  0
M  END
$$$$

 Created by Python create_sdf_string function

 25 28  0  0  0  0  0  0  0  0999 V2000
   13.1533   -5.2399   21.0682 C   0  0  0  0  0  0  0  0  0  0  0  0
   10.4729   -4.0295   17.6135 C   0  0  0  0  0  0  0  0  0  0  0  0
   10.4789   -4.3641   20.9564 C   0  0  0  0  0  0  0  0  0  0  0  0
    8.7421   -5.1412   16.3650 C   0  0  0  0  0  0  0  0  0  0  0  0
   11.4353   -2.9204   17.8044 C   0  0  0  0  0  0  0  0  0  0  0  0
   11.1529   -4.3028   22.1277 C   0  0  0  0  0  0  0  0  0  0  0  0
   11.1290   -4.8502   19.8052 C   0  0  0  0  0  0  0  0  0  0  0  0
   12.4329   -4.2159   24.4224 C   0  0  0  0  0  0  0  0  0  0  0  0
    3.4740   -9.0387   16.5022 C   0  0  0  0  0  0  0  0  0  0  0  0
    6.8384   -7.9290   17.5282 N   0  0  0  0  0  0  0  0  0  0  0  0
    9.4126   -5.9853   18.4899 C   0  0  0  0  0  0  0  0  0  0  0  0
    4.2064  -10.3242   18.3302 C   0  0  0  0  0  0  0  0  0  0  0  0
    9.6599   -4.1551   16.4796 N   0  0  0  0  0  0  0  0  0  0  0  0
    7.0644   -6.4612   15.7375 N   0  0  0  0  0  0  0  0  0  0  0  0
    5.3549   -9.6322   18.3190 C   0  0  0  0  0  0  0  0  0  0  0  0
   10.3704   -4.9638   18.6510 C   0  0  0  0  0  0  0  0  0  0  0  0
    5.5935   -8.6419   17.4234 C   0  0  0  0  0  0  0  0  0  0  0  0
   13.0726   -4.6648   23.3394 O   0  0  0  0  0  0  0  0  0  0  0  0
    8.5955   -6.0705   17.3996 C   0  0  0  0  0  0  0  0  0  0  0  0
    4.6223   -8.3832   16.5030 C   0  0  0  0  0  0  0  0  0  0  0  0
   12.4690   -5.2624   19.9024 C   0  0  0  0  0  0  0  0  0  0  0  0
    3.2548   -9.9919   17.4189 C   0  0  0  0  0  0  0  0  0  0  0  0
   12.4767   -4.7393   22.1790 C   0  0  0  0  0  0  0  0  0  0  0  0
    7.8593   -5.3772   15.3569 N   0  0  0  0  0  0  0  0  0  0  0  0
    7.4412   -6.9038   16.9283 C   0  0  0  0  0  0  0  0  0  0  0  0
  1 21  4  0
  1 23  4  0
  2  5  1  0
  2 13  4  0
  2 16  4  0
  3  6  4  0
  3  7  4  0
  4 13  4  0
  4 19  4  0
  4 24  4  0
  6 23  4  0
  7 16  1  0
  7 21  4  0
  8 18  1  0
  9 20  4  0
  9 22  4  0
 10 17  1  0
 10 25  1  0
 11 16  4  0
 11 19  4  0
 12 15  4  0
 12 22  4  0
 14 24  4  0
 14 25  4  0
 15 17  4  0
 17 20  4  0
 18 23  1  0
 19 25  4  0
M  END
$$$$

 Created by Python create_sdf_string function

 25 28  0  0  0  0  0  0  0  0999 V2000
   13.1533   -5.2399   21.0682 C   0  0  0  0  0  0  0  0  0  0  0  0
   10.4729   -4.0295   17.6135 C   0  0  0  0  0  0  0  0  0  0  0  0
   10.4789   -4.3641   20.9564 C   0  0  0  0  0  0  0  0  0  0  0  0
    8.7421   -5.1412   16.3650 C   0  0  0  0  0  0  0  0  0  0  0  0
   11.4353   -2.9204   17.8044 C   0  0  0  0  0  0  0  0  0  0  0  0
   11.1529   -4.3028   22.1277 C   0  0  0  0  0  0  0  0  0  0  0  0
   11.1290   -4.8502   19.8052 C   0  0  0  0  0  0  0  0  0  0  0  0
   12.4329   -4.2159   24.4224 C   0  0  0  0  0  0  0  0  0  0  0  0
    3.4740   -9.0387   16.5022 C   0  0  0  0  0  0  0  0  0  0  0  0
    6.8384   -7.9290   17.5282 N   0  0  0  0  0  0  0  0  0  0  0  0
    9.4126   -5.9853   18.4899 C   0  0  0  0  0  0  0  0  0  0  0  0
    4.2064  -10.3242   18.3302 C   0  0  0  0  0  0  0  0  0  0  0  0
    9.6599   -4.1551   16.4796 N   0  0  0  0  0  0  0  0  0  0  0  0
    7.0644   -6.4612   15.7375 N   0  0  0  0  0  0  0  0  0  0  0  0
    5.3549   -9.6322   18.3190 C   0  0  0  0  0  0  0  0  0  0  0  0
   10.3704   -4.9638   18.6510 C   0  0  0  0  0  0  0  0  0  0  0  0
    5.5935   -8.6419   17.4234 C   0  0  0  0  0  0  0  0  0  0  0  0
   13.0726   -4.6648   23.3394 O   0  0  0  0  0  0  0  0  0  0  0  0
    8.5955   -6.0705   17.3996 C   0  0  0  0  0  0  0  0  0  0  0  0
    4.6223   -8.3832   16.5030 C   0  0  0  0  0  0  0  0  0  0  0  0
   12.4690   -5.2624   19.9024 C   0  0  0  0  0  0  0  0  0  0  0  0
    3.2548   -9.9919   17.4189 C   0  0  0  0  0  0  0  0  0  0  0  0
   12.4767   -4.7393   22.1790 C   0  0  0  0  0  0  0  0  0  0  0  0
    7.8593   -5.3772   15.3569 N   0  0  0  0  0  0  0  0  0  0  0  0
    7.4412   -6.9038   16.9283 C   0  0  0  0  0  0  0  0  0  0  0  0
  1 21  4  0
  1 23  4  0
  2  5  1  0
  2 13  4  0
  2 16  4  0
  3  6  4  0
  3  7  4  0
  4 13  4  0
  4 19  4  0
  4 24  4  0
  6 23  4  0
  7 16  1  0
  7 21  4  0
  8 18  1  0
  9 20  4  0
  9 22  4  0
 10 17  1  0
 10 25  1  0
 11 16  4  0
 11 19  4  0
 12 15  4  0
 12 22  4  0
 14 24  4  0
 14 25  4  0
 15 17  4  0
 17 20  4  0
 18 23  1  0
 19 25  4  0
M  END
$$$$

 Created by Python create_sdf_string function

 25 28  0  0  0  0  0  0  0  0999 V2000
   13.1533   -5.2399   21.0682 C   0  0  0  0  0  0  0  0  0  0  0  0
   10.4729   -4.0295   17.6135 C   0  0  0  0  0  0  0  0  0  0  0  0
   10.4789   -4.3641   20.9564 C   0  0  0  0  0  0  0  0  0  0  0  0
    8.7421   -5.1412   16.3650 C   0  0  0  0  0  0  0  0  0  0  0  0
   11.4353   -2.9204   17.8044 C   0  0  0  0  0  0  0  0  0  0  0  0
   11.1529   -4.3028   22.1277 C   0  0  0  0  0  0  0  0  0  0  0  0
   11.1290   -4.8502   19.8052 C   0  0  0  0  0  0  0  0  0  0  0  0
   12.4329   -4.2159   24.4224 C   0  0  0  0  0  0  0  0  0  0  0  0
    3.4740   -9.0387   16.5022 C   0  0  0  0  0  0  0  0  0  0  0  0
    6.8384   -7.9290   17.5282 N   0  0  0  0  0  0  0  0  0  0  0  0
    9.4126   -5.9853   18.4899 C   0  0  0  0  0  0  0  0  0  0  0  0
    4.2064  -10.3242   18.3302 C   0  0  0  0  0  0  0  0  0  0  0  0
    9.6599   -4.1551   16.4796 N   0  0  0  0  0  0  0  0  0  0  0  0
    7.0644   -6.4612   15.7375 N   0  0  0  0  0  0  0  0  0  0  0  0
    5.3549   -9.6322   18.3190 C   0  0  0  0  0  0  0  0  0  0  0  0
   10.3704   -4.9638   18.6510 C   0  0  0  0  0  0  0  0  0  0  0  0
    5.5935   -8.6419   17.4234 C   0  0  0  0  0  0  0  0  0  0  0  0
   13.0726   -4.6648   23.3394 O   0  0  0  0  0  0  0  0  0  0  0  0
    8.5955   -6.0705   17.3996 C   0  0  0  0  0  0  0  0  0  0  0  0
    4.6223   -8.3832   16.5030 C   0  0  0  0  0  0  0  0  0  0  0  0
   12.4690   -5.2624   19.9024 C   0  0  0  0  0  0  0  0  0  0  0  0
    3.2548   -9.9919   17.4189 C   0  0  0  0  0  0  0  0  0  0  0  0
   12.4767   -4.7393   22.1790 C   0  0  0  0  0  0  0  0  0  0  0  0
    7.8593   -5.3772   15.3569 N   0  0  0  0  0  0  0  0  0  0  0  0
    7.4412   -6.9038   16.9283 C   0  0  0  0  0  0  0  0  0  0  0  0
  1 21  4  0
  1 23  4  0
  2  5  1  0
  2 13  4  0
  2 16  4  0
  3  6  4  0
  3  7  4  0
  4 13  4  0
  4 19  4  0
  4 24  4  0
  6 23  4  0
  7 16  1  0
  7 21  4  0
  8 18  1  0
  9 20  4  0
  9 22  4  0
 10 17  1  0
 10 25  1  0
 11 16  4  0
 11 19  4  0
 12 15  4  0
 12 22  4  0
 14 24  4  0
 14 25  4  0
 15 17  4  0
 17 20  4  0
 18 23  1  0
 19 25  4  0
M  END
$$$$

 Created by Python create_sdf_string function

 25 28  0  0  0  0  0  0  0  0999 V2000
   13.1533   -5.2399   21.0682 C   0  0  0  0  0  0  0  0  0  0  0  0
   10.4729   -4.0295   17.6135 C   0  0  0  0  0  0  0  0  0  0  0  0
   10.4789   -4.3641   20.9564 C   0  0  0  0  0  0  0  0  0  0  0  0
    8.7421   -5.1412   16.3650 C   0  0  0  0  0  0  0  0  0  0  0  0
   11.4353   -2.9204   17.8044 C   0  0  0  0  0  0  0  0  0  0  0  0
   11.1529   -4.3028   22.1277 C   0  0  0  0  0  0  0  0  0  0  0  0
   11.1290   -4.8502   19.8052 C   0  0  0  0  0  0  0  0  0  0  0  0
   12.4329   -4.2159   24.4224 C   0  0  0  0  0  0  0  0  0  0  0  0
    3.4740   -9.0387   16.5022 C   0  0  0  0  0  0  0  0  0  0  0  0
    6.8384   -7.9290   17.5282 N   0  0  0  0  0  0  0  0  0  0  0  0
    9.4126   -5.9853   18.4899 C   0  0  0  0  0  0  0  0  0  0  0  0
    4.2064  -10.3242   18.3302 C   0  0  0  0  0  0  0  0  0  0  0  0
    9.6599   -4.1551   16.4796 N   0  0  0  0  0  0  0  0  0  0  0  0
    7.0644   -6.4612   15.7375 N   0  0  0  0  0  0  0  0  0  0  0  0
    5.3549   -9.6322   18.3190 C   0  0  0  0  0  0  0  0  0  0  0  0
   10.3704   -4.9638   18.6510 C   0  0  0  0  0  0  0  0  0  0  0  0
    5.5935   -8.6419   17.4234 C   0  0  0  0  0  0  0  0  0  0  0  0
   13.0726   -4.6648   23.3394 O   0  0  0  0  0  0  0  0  0  0  0  0
    8.5955   -6.0705   17.3996 C   0  0  0  0  0  0  0  0  0  0  0  0
    4.6223   -8.3832   16.5030 C   0  0  0  0  0  0  0  0  0  0  0  0
   12.4690   -5.2624   19.9024 C   0  0  0  0  0  0  0  0  0  0  0  0
    3.2548   -9.9919   17.4189 C   0  0  0  0  0  0  0  0  0  0  0  0
   12.4767   -4.7393   22.1790 C   0  0  0  0  0  0  0  0  0  0  0  0
    7.8593   -5.3772   15.3569 N   0  0  0  0  0  0  0  0  0  0  0  0
    7.4412   -6.9038   16.9283 C   0  0  0  0  0  0  0  0  0  0  0  0
  1 21  4  0
  1 23  4  0
  2  5  1  0
  2 13  4  0
  2 16  4  0
  3  6  4  0
  3  7  4  0
  4 13  4  0
  4 19  4  0
  4 24  4  0
  6 23  4  0
  7 16  1  0
  7 21  4  0
  8 18  1  0
  9 20  4  0
  9 22  4  0
 10 17  1  0
 10 25  1  0
 11 16  4  0
 11 19  4  0
 12 15  4  0
 12 22  4  0
 14 24  4  0
 14 25  4  0
 15 17  4  0
 17 20  4  0
 18 23  1  0
 19 25  4  0
M  END
$$$$

 Created by Python create_sdf_string function

 25 28  0  0  0  0  0  0  0  0999 V2000
   13.1533   -5.2399   21.0682 C   0  0  0  0  0  0  0  0  0  0  0  0
   10.4729   -4.0295   17.6135 C   0  0  0  0  0  0  0  0  0  0  0  0
   10.4789   -4.3641   20.9564 C   0  0  0  0  0  0  0  0  0  0  0  0
    8.7421   -5.1412   16.3650 C   0  0  0  0  0  0  0  0  0  0  0  0
   11.4353   -2.9204   17.8044 C   0  0  0  0  0  0  0  0  0  0  0  0
   11.1529   -4.3028   22.1277 C   0  0  0  0  0  0  0  0  0  0  0  0
   11.1290   -4.8502   19.8052 C   0  0  0  0  0  0  0  0  0  0  0  0
   12.4329   -4.2159   24.4224 C   0  0  0  0  0  0  0  0  0  0  0  0
    3.4740   -9.0387   16.5022 C   0  0  0  0  0  0  0  0  0  0  0  0
    6.8384   -7.9290   17.5282 N   0  0  0  0  0  0  0  0  0  0  0  0
    9.4126   -5.9853   18.4899 C   0  0  0  0  0  0  0  0  0  0  0  0
    4.2064  -10.3242   18.3302 C   0  0  0  0  0  0  0  0  0  0  0  0
    9.6599   -4.1551   16.4796 N   0  0  0  0  0  0  0  0  0  0  0  0
    7.0644   -6.4612   15.7375 N   0  0  0  0  0  0  0  0  0  0  0  0
    5.3549   -9.6322   18.3190 C   0  0  0  0  0  0  0  0  0  0  0  0
   10.3704   -4.9638   18.6510 C   0  0  0  0  0  0  0  0  0  0  0  0
    5.5935   -8.6419   17.4234 C   0  0  0  0  0  0  0  0  0  0  0  0
   13.0726   -4.6648   23.3394 O   0  0  0  0  0  0  0  0  0  0  0  0
    8.5955   -6.0705   17.3996 C   0  0  0  0  0  0  0  0  0  0  0  0
    4.6223   -8.3832   16.5030 C   0  0  0  0  0  0  0  0  0  0  0  0
   12.4690   -5.2624   19.9024 C   0  0  0  0  0  0  0  0  0  0  0  0
    3.2548   -9.9919   17.4189 C   0  0  0  0  0  0  0  0  0  0  0  0
   12.4767   -4.7393   22.1790 C   0  0  0  0  0  0  0  0  0  0  0  0
    7.8593   -5.3772   15.3569 N   0  0  0  0  0  0  0  0  0  0  0  0
    7.4412   -6.9038   16.9283 C   0  0  0  0  0  0  0  0  0  0  0  0
  1 21  4  0
  1 23  4  0
  2  5  1  0
  2 13  4  0
  2 16  4  0
  3  6  4  0
  3  7  4  0
  4 13  4  0
  4 19  4  0
  4 24  4  0
  6 23  4  0
  7 16  1  0
  7 21  4  0
  8 18  1  0
  9 20  4  0
  9 22  4  0
 10 17  1  0
 10 25  1  0
 11 16  4  0
 11 19  4  0
 12 15  4  0
 12 22  4  0
 14 24  4  0
 14 25  4  0
 15 17  4  0
 17 20  4  0
 18 23  1  0
 19 25  4  0
M  END
$$$$

 Created by Python create_sdf_string function

 25 28  0  0  0  0  0  0  0  0999 V2000
   13.1533   -5.2399   21.0682 C   0  0  0  0  0  0  0  0  0  0  0  0
   10.4729   -4.0295   17.6135 C   0  0  0  0  0  0  0  0  0  0  0  0
   10.4789   -4.3641   20.9564 C   0  0  0  0  0  0  0  0  0  0  0  0
    8.7421   -5.1412   16.3650 C   0  0  0  0  0  0  0  0  0  0  0  0
   11.4353   -2.9204   17.8044 C   0  0  0  0  0  0  0  0  0  0  0  0
   11.1529   -4.3028   22.1277 C   0  0  0  0  0  0  0  0  0  0  0  0
   11.1290   -4.8502   19.8052 C   0  0  0  0  0  0  0  0  0  0  0  0
   12.4329   -4.2159   24.4224 C   0  0  0  0  0  0  0  0  0  0  0  0
    3.4740   -9.0387   16.5022 C   0  0  0  0  0  0  0  0  0  0  0  0
    6.8384   -7.9290   17.5282 N   0  0  0  0  0  0  0  0  0  0  0  0
    9.4126   -5.9853   18.4899 C   0  0  0  0  0  0  0  0  0  0  0  0
    4.2064  -10.3242   18.3302 C   0  0  0  0  0  0  0  0  0  0  0  0
    9.6599   -4.1551   16.4796 N   0  0  0  0  0  0  0  0  0  0  0  0
    7.0644   -6.4612   15.7375 N   0  0  0  0  0  0  0  0  0  0  0  0
    5.3549   -9.6322   18.3190 C   0  0  0  0  0  0  0  0  0  0  0  0
   10.3704   -4.9638   18.6510 C   0  0  0  0  0  0  0  0  0  0  0  0
    5.5935   -8.6419   17.4234 C   0  0  0  0  0  0  0  0  0  0  0  0
   13.0726   -4.6648   23.3394 O   0  0  0  0  0  0  0  0  0  0  0  0
    8.5955   -6.0705   17.3996 C   0  0  0  0  0  0  0  0  0  0  0  0
    4.6223   -8.3832   16.5030 C   0  0  0  0  0  0  0  0  0  0  0  0
   12.4690   -5.2624   19.9024 C   0  0  0  0  0  0  0  0  0  0  0  0
    3.2548   -9.9919   17.4189 C   0  0  0  0  0  0  0  0  0  0  0  0
   12.4767   -4.7393   22.1790 C   0  0  0  0  0  0  0  0  0  0  0  0
    7.8593   -5.3772   15.3569 N   0  0  0  0  0  0  0  0  0  0  0  0
    7.4412   -6.9038   16.9283 C   0  0  0  0  0  0  0  0  0  0  0  0
  1 21  4  0
  1 23  4  0
  2  5  1  0
  2 13  4  0
  2 16  4  0
  3  6  4  0
  3  7  4  0
  4 13  4  0
  4 19  4  0
  4 24  4  0
  6 23  4  0
  7 16  1  0
  7 21  4  0
  8 18  1  0
  9 20  4  0
  9 22  4  0
 10 17  1  0
 10 25  1  0
 11 16  4  0
 11 19  4  0
 12 15  4  0
 12 22  4  0
 14 24  4  0
 14 25  4  0
 15 17  4  0
 17 20  4  0
 18 23  1  0
 19 25  4  0
M  END
$$$$

 Created by Python create_sdf_string function

 25 28  0  0  0  0  0  0  0  0999 V2000
   13.1533   -5.2399   21.0682 C   0  0  0  0  0  0  0  0  0  0  0  0
   10.4729   -4.0295   17.6135 C   0  0  0  0  0  0  0  0  0  0  0  0
   10.4789   -4.3641   20.9564 C   0  0  0  0  0  0  0  0  0  0  0  0
    8.7421   -5.1412   16.3650 C   0  0  0  0  0  0  0  0  0  0  0  0
   11.4353   -2.9204   17.8044 C   0  0  0  0  0  0  0  0  0  0  0  0
   11.1529   -4.3028   22.1277 C   0  0  0  0  0  0  0  0  0  0  0  0
   11.1290   -4.8502   19.8052 C   0  0  0  0  0  0  0  0  0  0  0  0
   12.4329   -4.2159   24.4224 C   0  0  0  0  0  0  0  0  0  0  0  0
    3.4740   -9.0387   16.5022 C   0  0  0  0  0  0  0  0  0  0  0  0
    6.8384   -7.9290   17.5282 N   0  0  0  0  0  0  0  0  0  0  0  0
    9.4126   -5.9853   18.4899 C   0  0  0  0  0  0  0  0  0  0  0  0
    4.2064  -10.3242   18.3302 C   0  0  0  0  0  0  0  0  0  0  0  0
    9.6599   -4.1551   16.4796 N   0  0  0  0  0  0  0  0  0  0  0  0
    7.0644   -6.4612   15.7375 N   0  0  0  0  0  0  0  0  0  0  0  0
    5.3549   -9.6322   18.3190 C   0  0  0  0  0  0  0  0  0  0  0  0
   10.3704   -4.9638   18.6510 C   0  0  0  0  0  0  0  0  0  0  0  0
    5.5935   -8.6419   17.4234 C   0  0  0  0  0  0  0  0  0  0  0  0
   13.0726   -4.6648   23.3394 O   0  0  0  0  0  0  0  0  0  0  0  0
    8.5955   -6.0705   17.3996 C   0  0  0  0  0  0  0  0  0  0  0  0
    4.6223   -8.3832   16.5030 C   0  0  0  0  0  0  0  0  0  0  0  0
   12.4690   -5.2624   19.9024 C   0  0  0  0  0  0  0  0  0  0  0  0
    3.2548   -9.9919   17.4189 C   0  0  0  0  0  0  0  0  0  0  0  0
   12.4767   -4.7393   22.1790 C   0  0  0  0  0  0  0  0  0  0  0  0
    7.8593   -5.3772   15.3569 N   0  0  0  0  0  0  0  0  0  0  0  0
    7.4412   -6.9038   16.9283 C   0  0  0  0  0  0  0  0  0  0  0  0
  1 21  4  0
  1 23  4  0
  2  5  1  0
  2 13  4  0
  2 16  4  0
  3  6  4  0
  3  7  4  0
  4 13  4  0
  4 19  4  0
  4 24  4  0
  6 23  4  0
  7 16  1  0
  7 21  4  0
  8 18  1  0
  9 20  4  0
  9 22  4  0
 10 17  1  0
 10 25  1  0
 11 16  4  0
 11 19  4  0
 12 15  4  0
 12 22  4  0
 14 24  4  0
 14 25  4  0
 15 17  4  0
 17 20  4  0
 18 23  1  0
 19 25  4  0
M  END
$$$$

 Created by Python create_sdf_string function

 25 28  0  0  0  0  0  0  0  0999 V2000
   13.1533   -5.2399   21.0682 C   0  0  0  0  0  0  0  0  0  0  0  0
   10.4729   -4.0295   17.6135 C   0  0  0  0  0  0  0  0  0  0  0  0
   10.4789   -4.3641   20.9564 C   0  0  0  0  0  0  0  0  0  0  0  0
    8.7421   -5.1412   16.3650 C   0  0  0  0  0  0  0  0  0  0  0  0
   11.4353   -2.9204   17.8044 C   0  0  0  0  0  0  0  0  0  0  0  0
   11.1529   -4.3028   22.1277 C   0  0  0  0  0  0  0  0  0  0  0  0
   11.1290   -4.8502   19.8052 C   0  0  0  0  0  0  0  0  0  0  0  0
   12.4329   -4.2159   24.4224 C   0  0  0  0  0  0  0  0  0  0  0  0
    3.4740   -9.0387   16.5022 C   0  0  0  0  0  0  0  0  0  0  0  0
    6.8384   -7.9290   17.5282 N   0  0  0  0  0  0  0  0  0  0  0  0
    9.4126   -5.9853   18.4899 C   0  0  0  0  0  0  0  0  0  0  0  0
    4.2064  -10.3242   18.3302 C   0  0  0  0  0  0  0  0  0  0  0  0
    9.6599   -4.1551   16.4796 N   0  0  0  0  0  0  0  0  0  0  0  0
    7.0644   -6.4612   15.7375 N   0  0  0  0  0  0  0  0  0  0  0  0
    5.3549   -9.6322   18.3190 C   0  0  0  0  0  0  0  0  0  0  0  0
   10.3704   -4.9638   18.6510 C   0  0  0  0  0  0  0  0  0  0  0  0
    5.5935   -8.6419   17.4234 C   0  0  0  0  0  0  0  0  0  0  0  0
   13.0726   -4.6648   23.3394 O   0  0  0  0  0  0  0  0  0  0  0  0
    8.5955   -6.0705   17.3996 C   0  0  0  0  0  0  0  0  0  0  0  0
    4.6223   -8.3832   16.5030 C   0  0  0  0  0  0  0  0  0  0  0  0
   12.4690   -5.2624   19.9024 C   0  0  0  0  0  0  0  0  0  0  0  0
    3.2548   -9.9919   17.4189 C   0  0  0  0  0  0  0  0  0  0  0  0
   12.4767   -4.7393   22.1790 C   0  0  0  0  0  0  0  0  0  0  0  0
    7.8593   -5.3772   15.3569 N   0  0  0  0  0  0  0  0  0  0  0  0
    7.4412   -6.9038   16.9283 C   0  0  0  0  0  0  0  0  0  0  0  0
  1 21  4  0
  1 23  4  0
  2  5  1  0
  2 13  4  0
  2 16  4  0
  3  6  4  0
  3  7  4  0
  4 13  4  0
  4 19  4  0
  4 24  4  0
  6 23  4  0
  7 16  1  0
  7 21  4  0
  8 18  1  0
  9 20  4  0
  9 22  4  0
 10 17  1  0
 10 25  1  0
 11 16  4  0
 11 19  4  0
 12 15  4  0
 12 22  4  0
 14 24  4  0
 14 25  4  0
 15 17  4  0
 17 20  4  0
 18 23  1  0
 19 25  4  0
M  END
$$$$

 Created by Python create_sdf_string function

 25 28  0  0  0  0  0  0  0  0999 V2000
   13.1533   -5.2399   21.0682 C   0  0  0  0  0  0  0  0  0  0  0  0
   10.4729   -4.0295   17.6135 C   0  0  0  0  0  0  0  0  0  0  0  0
   10.4789   -4.3641   20.9564 C   0  0  0  0  0  0  0  0  0  0  0  0
    8.7421   -5.1412   16.3650 C   0  0  0  0  0  0  0  0  0  0  0  0
   11.4353   -2.9204   17.8044 C   0  0  0  0  0  0  0  0  0  0  0  0
   11.1529   -4.3028   22.1277 C   0  0  0  0  0  0  0  0  0  0  0  0
   11.1290   -4.8502   19.8052 C   0  0  0  0  0  0  0  0  0  0  0  0
   12.4329   -4.2159   24.4224 C   0  0  0  0  0  0  0  0  0  0  0  0
    3.4740   -9.0387   16.5022 C   0  0  0  0  0  0  0  0  0  0  0  0
    6.8384   -7.9290   17.5282 N   0  0  0  0  0  0  0  0  0  0  0  0
    9.4126   -5.9853   18.4899 C   0  0  0  0  0  0  0  0  0  0  0  0
    4.2064  -10.3242   18.3302 C   0  0  0  0  0  0  0  0  0  0  0  0
    9.6599   -4.1551   16.4796 N   0  0  0  0  0  0  0  0  0  0  0  0
    7.0644   -6.4612   15.7375 N   0  0  0  0  0  0  0  0  0  0  0  0
    5.3549   -9.6322   18.3190 C   0  0  0  0  0  0  0  0  0  0  0  0
   10.3704   -4.9638   18.6510 C   0  0  0  0  0  0  0  0  0  0  0  0
    5.5935   -8.6419   17.4234 C   0  0  0  0  0  0  0  0  0  0  0  0
   13.0726   -4.6648   23.3394 O   0  0  0  0  0  0  0  0  0  0  0  0
    8.5955   -6.0705   17.3996 C   0  0  0  0  0  0  0  0  0  0  0  0
    4.6223   -8.3832   16.5030 C   0  0  0  0  0  0  0  0  0  0  0  0
   12.4690   -5.2624   19.9024 C   0  0  0  0  0  0  0  0  0  0  0  0
    3.2548   -9.9919   17.4189 C   0  0  0  0  0  0  0  0  0  0  0  0
   12.4767   -4.7393   22.1790 C   0  0  0  0  0  0  0  0  0  0  0  0
    7.8593   -5.3772   15.3569 N   0  0  0  0  0  0  0  0  0  0  0  0
    7.4412   -6.9038   16.9283 C   0  0  0  0  0  0  0  0  0  0  0  0
  1 21  4  0
  1 23  4  0
  2  5  1  0
  2 13  4  0
  2 16  4  0
  3  6  4  0
  3  7  4  0
  4 13  4  0
  4 19  4  0
  4 24  4  0
  6 23  4  0
  7 16  1  0
  7 21  4  0
  8 18  1  0
  9 20  4  0
  9 22  4  0
 10 17  1  0
 10 25  1  0
 11 16  4  0
 11 19  4  0
 12 15  4  0
 12 22  4  0
 14 24  4  0
 14 25  4  0
 15 17  4  0
 17 20  4  0
 18 23  1  0
 19 25  4  0
M  END
$$$$

 Created by Python create_sdf_string function

 25 28  0  0  0  0  0  0  0  0999 V2000
   13.1533   -5.2399   21.0682 C   0  0  0  0  0  0  0  0  0  0  0  0
   10.4729   -4.0295   17.6135 C   0  0  0  0  0  0  0  0  0  0  0  0
   10.4789   -4.3641   20.9564 C   0  0  0  0  0  0  0  0  0  0  0  0
    8.7421   -5.1412   16.3650 C   0  0  0  0  0  0  0  0  0  0  0  0
   11.4353   -2.9204   17.8044 C   0  0  0  0  0  0  0  0  0  0  0  0
   11.1529   -4.3028   22.1277 C   0  0  0  0  0  0  0  0  0  0  0  0
   11.1290   -4.8502   19.8052 C   0  0  0  0  0  0  0  0  0  0  0  0
   12.4329   -4.2159   24.4224 C   0  0  0  0  0  0  0  0  0  0  0  0
    3.4740   -9.0387   16.5022 C   0  0  0  0  0  0  0  0  0  0  0  0
    6.8384   -7.9290   17.5282 N   0  0  0  0  0  0  0  0  0  0  0  0
    9.4126   -5.9853   18.4899 C   0  0  0  0  0  0  0  0  0  0  0  0
    4.2064  -10.3242   18.3302 C   0  0  0  0  0  0  0  0  0  0  0  0
    9.6599   -4.1551   16.4796 N   0  0  0  0  0  0  0  0  0  0  0  0
    7.0644   -6.4612   15.7375 N   0  0  0  0  0  0  0  0  0  0  0  0
    5.3549   -9.6322   18.3190 C   0  0  0  0  0  0  0  0  0  0  0  0
   10.3704   -4.9638   18.6510 C   0  0  0  0  0  0  0  0  0  0  0  0
    5.5935   -8.6419   17.4234 C   0  0  0  0  0  0  0  0  0  0  0  0
   13.0726   -4.6648   23.3394 O   0  0  0  0  0  0  0  0  0  0  0  0
    8.5955   -6.0705   17.3996 C   0  0  0  0  0  0  0  0  0  0  0  0
    4.6223   -8.3832   16.5030 C   0  0  0  0  0  0  0  0  0  0  0  0
   12.4690   -5.2624   19.9024 C   0  0  0  0  0  0  0  0  0  0  0  0
    3.2548   -9.9919   17.4189 C   0  0  0  0  0  0  0  0  0  0  0  0
   12.4767   -4.7393   22.1790 C   0  0  0  0  0  0  0  0  0  0  0  0
    7.8593   -5.3772   15.3569 N   0  0  0  0  0  0  0  0  0  0  0  0
    7.4412   -6.9038   16.9283 C   0  0  0  0  0  0  0  0  0  0  0  0
  1 21  4  0
  1 23  4  0
  2  5  1  0
  2 13  4  0
  2 16  4  0
  3  6  4  0
  3  7  4  0
  4 13  4  0
  4 19  4  0
  4 24  4  0
  6 23  4  0
  7 16  1  0
  7 21  4  0
  8 18  1  0
  9 20  4  0
  9 22  4  0
 10 17  1  0
 10 25  1  0
 11 16  4  0
 11 19  4  0
 12 15  4  0
 12 22  4  0
 14 24  4  0
 14 25  4  0
 15 17  4  0
 17 20  4  0
 18 23  1  0
 19 25  4  0
M  END
$$$$

 Created by Python create_sdf_string function

 25 28  0  0  0  0  0  0  0  0999 V2000
   13.1533   -5.2399   21.0682 C   0  0  0  0  0  0  0  0  0  0  0  0
   10.4729   -4.0295   17.6135 C   0  0  0  0  0  0  0  0  0  0  0  0
   10.4789   -4.3641   20.9564 C   0  0  0  0  0  0  0  0  0  0  0  0
    8.7421   -5.1412   16.3650 C   0  0  0  0  0  0  0  0  0  0  0  0
   11.4353   -2.9204   17.8044 C   0  0  0  0  0  0  0  0  0  0  0  0
   11.1529   -4.3028   22.1277 C   0  0  0  0  0  0  0  0  0  0  0  0
   11.1290   -4.8502   19.8052 C   0  0  0  0  0  0  0  0  0  0  0  0
   12.4329   -4.2159   24.4224 C   0  0  0  0  0  0  0  0  0  0  0  0
    3.4740   -9.0387   16.5022 C   0  0  0  0  0  0  0  0  0  0  0  0
    6.8384   -7.9290   17.5282 N   0  0  0  0  0  0  0  0  0  0  0  0
    9.4126   -5.9853   18.4899 C   0  0  0  0  0  0  0  0  0  0  0  0
    4.2064  -10.3242   18.3302 C   0  0  0  0  0  0  0  0  0  0  0  0
    9.6599   -4.1551   16.4796 N   0  0  0  0  0  0  0  0  0  0  0  0
    7.0644   -6.4612   15.7375 N   0  0  0  0  0  0  0  0  0  0  0  0
    5.3549   -9.6322   18.3190 C   0  0  0  0  0  0  0  0  0  0  0  0
   10.3704   -4.9638   18.6510 C   0  0  0  0  0  0  0  0  0  0  0  0
    5.5935   -8.6419   17.4234 C   0  0  0  0  0  0  0  0  0  0  0  0
   13.0726   -4.6648   23.3394 O   0  0  0  0  0  0  0  0  0  0  0  0
    8.5955   -6.0705   17.3996 C   0  0  0  0  0  0  0  0  0  0  0  0
    4.6223   -8.3832   16.5030 C   0  0  0  0  0  0  0  0  0  0  0  0
   12.4690   -5.2624   19.9024 C   0  0  0  0  0  0  0  0  0  0  0  0
    3.2548   -9.9919   17.4189 C   0  0  0  0  0  0  0  0  0  0  0  0
   12.4767   -4.7393   22.1790 C   0  0  0  0  0  0  0  0  0  0  0  0
    7.8593   -5.3772   15.3569 N   0  0  0  0  0  0  0  0  0  0  0  0
    7.4412   -6.9038   16.9283 C   0  0  0  0  0  0  0  0  0  0  0  0
  1 21  4  0
  1 23  4  0
  2  5  1  0
  2 13  4  0
  2 16  4  0
  3  6  4  0
  3  7  4  0
  4 13  4  0
  4 19  4  0
  4 24  4  0
  6 23  4  0
  7 16  1  0
  7 21  4  0
  8 18  1  0
  9 20  4  0
  9 22  4  0
 10 17  1  0
 10 25  1  0
 11 16  4  0
 11 19  4  0
 12 15  4  0
 12 22  4  0
 14 24  4  0
 14 25  4  0
 15 17  4  0
 17 20  4  0
 18 23  1  0
 19 25  4  0
M  END
$$$$

 Created by Python create_sdf_string function

 25 28  0  0  0  0  0  0  0  0999 V2000
   13.1533   -5.2399   21.0682 C   0  0  0  0  0  0  0  0  0  0  0  0
   10.4729   -4.0295   17.6135 C   0  0  0  0  0  0  0  0  0  0  0  0
   10.4789   -4.3641   20.9564 C   0  0  0  0  0  0  0  0  0  0  0  0
    8.7421   -5.1412   16.3650 C   0  0  0  0  0  0  0  0  0  0  0  0
   11.4353   -2.9204   17.8044 C   0  0  0  0  0  0  0  0  0  0  0  0
   11.1529   -4.3028   22.1277 C   0  0  0  0  0  0  0  0  0  0  0  0
   11.1290   -4.8502   19.8052 C   0  0  0  0  0  0  0  0  0  0  0  0
   12.4329   -4.2159   24.4224 C   0  0  0  0  0  0  0  0  0  0  0  0
    3.4740   -9.0387   16.5022 C   0  0  0  0  0  0  0  0  0  0  0  0
    6.8384   -7.9290   17.5282 N   0  0  0  0  0  0  0  0  0  0  0  0
    9.4126   -5.9853   18.4899 C   0  0  0  0  0  0  0  0  0  0  0  0
    4.2064  -10.3242   18.3302 C   0  0  0  0  0  0  0  0  0  0  0  0
    9.6599   -4.1551   16.4796 N   0  0  0  0  0  0  0  0  0  0  0  0
    7.0644   -6.4612   15.7375 N   0  0  0  0  0  0  0  0  0  0  0  0
    5.3549   -9.6322   18.3190 C   0  0  0  0  0  0  0  0  0  0  0  0
   10.3704   -4.9638   18.6510 C   0  0  0  0  0  0  0  0  0  0  0  0
    5.5935   -8.6419   17.4234 C   0  0  0  0  0  0  0  0  0  0  0  0
   13.0726   -4.6648   23.3394 O   0  0  0  0  0  0  0  0  0  0  0  0
    8.5955   -6.0705   17.3996 C   0  0  0  0  0  0  0  0  0  0  0  0
    4.6223   -8.3832   16.5030 C   0  0  0  0  0  0  0  0  0  0  0  0
   12.4690   -5.2624   19.9024 C   0  0  0  0  0  0  0  0  0  0  0  0
    3.2548   -9.9919   17.4189 C   0  0  0  0  0  0  0  0  0  0  0  0
   12.4767   -4.7393   22.1790 C   0  0  0  0  0  0  0  0  0  0  0  0
    7.8593   -5.3772   15.3569 N   0  0  0  0  0  0  0  0  0  0  0  0
    7.4412   -6.9038   16.9283 C   0  0  0  0  0  0  0  0  0  0  0  0
  1 21  4  0
  1 23  4  0
  2  5  1  0
  2 13  4  0
  2 16  4  0
  3  6  4  0
  3  7  4  0
  4 13  4  0
  4 19  4  0
  4 24  4  0
  6 23  4  0
  7 16  1  0
  7 21  4  0
  8 18  1  0
  9 20  4  0
  9 22  4  0
 10 17  1  0
 10 25  1  0
 11 16  4  0
 11 19  4  0
 12 15  4  0
 12 22  4  0
 14 24  4  0
 14 25  4  0
 15 17  4  0
 17 20  4  0
 18 23  1  0
 19 25  4  0
M  END
$$$$

 Created by Python create_sdf_string function

 25 28  0  0  0  0  0  0  0  0999 V2000
   13.1533   -5.2399   21.0682 C   0  0  0  0  0  0  0  0  0  0  0  0
   10.4729   -4.0295   17.6135 C   0  0  0  0  0  0  0  0  0  0  0  0
   10.4789   -4.3641   20.9564 C   0  0  0  0  0  0  0  0  0  0  0  0
    8.7421   -5.1412   16.3650 C   0  0  0  0  0  0  0  0  0  0  0  0
   11.4353   -2.9204   17.8044 C   0  0  0  0  0  0  0  0  0  0  0  0
   11.1529   -4.3028   22.1277 C   0  0  0  0  0  0  0  0  0  0  0  0
   11.1290   -4.8502   19.8052 C   0  0  0  0  0  0  0  0  0  0  0  0
   12.4329   -4.2159   24.4224 C   0  0  0  0  0  0  0  0  0  0  0  0
    3.4740   -9.0387   16.5022 C   0  0  0  0  0  0  0  0  0  0  0  0
    6.8384   -7.9290   17.5282 N   0  0  0  0  0  0  0  0  0  0  0  0
    9.4126   -5.9853   18.4899 C   0  0  0  0  0  0  0  0  0  0  0  0
    4.2064  -10.3242   18.3302 C   0  0  0  0  0  0  0  0  0  0  0  0
    9.6599   -4.1551   16.4796 N   0  0  0  0  0  0  0  0  0  0  0  0
    7.0644   -6.4612   15.7375 N   0  0  0  0  0  0  0  0  0  0  0  0
    5.3549   -9.6322   18.3190 C   0  0  0  0  0  0  0  0  0  0  0  0
   10.3704   -4.9638   18.6510 C   0  0  0  0  0  0  0  0  0  0  0  0
    5.5935   -8.6419   17.4234 C   0  0  0  0  0  0  0  0  0  0  0  0
   13.0726   -4.6648   23.3394 O   0  0  0  0  0  0  0  0  0  0  0  0
    8.5955   -6.0705   17.3996 C   0  0  0  0  0  0  0  0  0  0  0  0
    4.6223   -8.3832   16.5030 C   0  0  0  0  0  0  0  0  0  0  0  0
   12.4690   -5.2624   19.9024 C   0  0  0  0  0  0  0  0  0  0  0  0
    3.2548   -9.9919   17.4189 C   0  0  0  0  0  0  0  0  0  0  0  0
   12.4767   -4.7393   22.1790 C   0  0  0  0  0  0  0  0  0  0  0  0
    7.8593   -5.3772   15.3569 N   0  0  0  0  0  0  0  0  0  0  0  0
    7.4412   -6.9038   16.9283 C   0  0  0  0  0  0  0  0  0  0  0  0
  1 21  4  0
  1 23  4  0
  2  5  1  0
  2 13  4  0
  2 16  4  0
  3  6  4  0
  3  7  4  0
  4 13  4  0
  4 19  4  0
  4 24  4  0
  6 23  4  0
  7 16  1  0
  7 21  4  0
  8 18  1  0
  9 20  4  0
  9 22  4  0
 10 17  1  0
 10 25  1  0
 11 16  4  0
 11 19  4  0
 12 15  4  0
 12 22  4  0
 14 24  4  0
 14 25  4  0
 15 17  4  0
 17 20  4  0
 18 23  1  0
 19 25  4  0
M  END
$$$$

 Created by Python create_sdf_string function

 25 28  0  0  0  0  0  0  0  0999 V2000
   13.1533   -5.2399   21.0682 C   0  0  0  0  0  0  0  0  0  0  0  0
   10.4729   -4.0295   17.6135 C   0  0  0  0  0  0  0  0  0  0  0  0
   10.4789   -4.3641   20.9564 C   0  0  0  0  0  0  0  0  0  0  0  0
    8.7421   -5.1412   16.3650 C   0  0  0  0  0  0  0  0  0  0  0  0
   11.4353   -2.9204   17.8044 C   0  0  0  0  0  0  0  0  0  0  0  0
   11.1529   -4.3028   22.1277 C   0  0  0  0  0  0  0  0  0  0  0  0
   11.1290   -4.8502   19.8052 C   0  0  0  0  0  0  0  0  0  0  0  0
   12.4329   -4.2159   24.4224 C   0  0  0  0  0  0  0  0  0  0  0  0
    3.4740   -9.0387   16.5022 C   0  0  0  0  0  0  0  0  0  0  0  0
    6.8384   -7.9290   17.5282 N   0  0  0  0  0  0  0  0  0  0  0  0
    9.4126   -5.9853   18.4899 C   0  0  0  0  0  0  0  0  0  0  0  0
    4.2064  -10.3242   18.3302 C   0  0  0  0  0  0  0  0  0  0  0  0
    9.6599   -4.1551   16.4796 N   0  0  0  0  0  0  0  0  0  0  0  0
    7.0644   -6.4612   15.7375 N   0  0  0  0  0  0  0  0  0  0  0  0
    5.3549   -9.6322   18.3190 C   0  0  0  0  0  0  0  0  0  0  0  0
   10.3704   -4.9638   18.6510 C   0  0  0  0  0  0  0  0  0  0  0  0
    5.5935   -8.6419   17.4234 C   0  0  0  0  0  0  0  0  0  0  0  0
   13.0726   -4.6648   23.3394 O   0  0  0  0  0  0  0  0  0  0  0  0
    8.5955   -6.0705   17.3996 C   0  0  0  0  0  0  0  0  0  0  0  0
    4.6223   -8.3832   16.5030 C   0  0  0  0  0  0  0  0  0  0  0  0
   12.4690   -5.2624   19.9024 C   0  0  0  0  0  0  0  0  0  0  0  0
    3.2548   -9.9919   17.4189 C   0  0  0  0  0  0  0  0  0  0  0  0
   12.4767   -4.7393   22.1790 C   0  0  0  0  0  0  0  0  0  0  0  0
    7.8593   -5.3772   15.3569 N   0  0  0  0  0  0  0  0  0  0  0  0
    7.4412   -6.9038   16.9283 C   0  0  0  0  0  0  0  0  0  0  0  0
  1 21  4  0
  1 23  4  0
  2  5  1  0
  2 13  4  0
  2 16  4  0
  3  6  4  0
  3  7  4  0
  4 13  4  0
  4 19  4  0
  4 24  4  0
  6 23  4  0
  7 16  1  0
  7 21  4  0
  8 18  1  0
  9 20  4  0
  9 22  4  0
 10 17  1  0
 10 25  1  0
 11 16  4  0
 11 19  4  0
 12 15  4  0
 12 22  4  0
 14 24  4  0
 14 25  4  0
 15 17  4  0
 17 20  4  0
 18 23  1  0
 19 25  4  0
M  END
$$$$

 Created by Python create_sdf_string function

 25 28  0  0  0  0  0  0  0  0999 V2000
   13.1533   -5.2399   21.0682 C   0  0  0  0  0  0  0  0  0  0  0  0
   10.4729   -4.0295   17.6135 C   0  0  0  0  0  0  0  0  0  0  0  0
   10.4789   -4.3641   20.9564 C   0  0  0  0  0  0  0  0  0  0  0  0
    8.7421   -5.1412   16.3650 C   0  0  0  0  0  0  0  0  0  0  0  0
   11.4353   -2.9204   17.8044 C   0  0  0  0  0  0  0  0  0  0  0  0
   11.1529   -4.3028   22.1277 C   0  0  0  0  0  0  0  0  0  0  0  0
   11.1290   -4.8502   19.8052 C   0  0  0  0  0  0  0  0  0  0  0  0
   12.4329   -4.2159   24.4224 C   0  0  0  0  0  0  0  0  0  0  0  0
    3.4740   -9.0387   16.5022 C   0  0  0  0  0  0  0  0  0  0  0  0
    6.8384   -7.9290   17.5282 N   0  0  0  0  0  0  0  0  0  0  0  0
    9.4126   -5.9853   18.4899 C   0  0  0  0  0  0  0  0  0  0  0  0
    4.2064  -10.3242   18.3302 C   0  0  0  0  0  0  0  0  0  0  0  0
    9.6599   -4.1551   16.4796 N   0  0  0  0  0  0  0  0  0  0  0  0
    7.0644   -6.4612   15.7375 N   0  0  0  0  0  0  0  0  0  0  0  0
    5.3549   -9.6322   18.3190 C   0  0  0  0  0  0  0  0  0  0  0  0
   10.3704   -4.9638   18.6510 C   0  0  0  0  0  0  0  0  0  0  0  0
    5.5935   -8.6419   17.4234 C   0  0  0  0  0  0  0  0  0  0  0  0
   13.0726   -4.6648   23.3394 O   0  0  0  0  0  0  0  0  0  0  0  0
    8.5955   -6.0705   17.3996 C   0  0  0  0  0  0  0  0  0  0  0  0
    4.6223   -8.3832   16.5030 C   0  0  0  0  0  0  0  0  0  0  0  0
   12.4690   -5.2624   19.9024 C   0  0  0  0  0  0  0  0  0  0  0  0
    3.2548   -9.9919   17.4189 C   0  0  0  0  0  0  0  0  0  0  0  0
   12.4767   -4.7393   22.1790 C   0  0  0  0  0  0  0  0  0  0  0  0
    7.8593   -5.3772   15.3569 N   0  0  0  0  0  0  0  0  0  0  0  0
    7.4412   -6.9038   16.9283 C   0  0  0  0  0  0  0  0  0  0  0  0
  1 21  4  0
  1 23  4  0
  2  5  1  0
  2 13  4  0
  2 16  4  0
  3  6  4  0
  3  7  4  0
  4 13  4  0
  4 19  4  0
  4 24  4  0
  6 23  4  0
  7 16  1  0
  7 21  4  0
  8 18  1  0
  9 20  4  0
  9 22  4  0
 10 17  1  0
 10 25  1  0
 11 16  4  0
 11 19  4  0
 12 15  4  0
 12 22  4  0
 14 24  4  0
 14 25  4  0
 15 17  4  0
 17 20  4  0
 18 23  1  0
 19 25  4  0
M  END
$$$$

 Created by Python create_sdf_string function

 25 28  0  0  0  0  0  0  0  0999 V2000
   13.1533   -5.2399   21.0682 C   0  0  0  0  0  0  0  0  0  0  0  0
   10.4729   -4.0295   17.6135 C   0  0  0  0  0  0  0  0  0  0  0  0
   10.4789   -4.3641   20.9564 C   0  0  0  0  0  0  0  0  0  0  0  0
    8.7421   -5.1412   16.3650 C   0  0  0  0  0  0  0  0  0  0  0  0
   11.4353   -2.9204   17.8044 C   0  0  0  0  0  0  0  0  0  0  0  0
   11.1529   -4.3028   22.1277 C   0  0  0  0  0  0  0  0  0  0  0  0
   11.1290   -4.8502   19.8052 C   0  0  0  0  0  0  0  0  0  0  0  0
   12.4329   -4.2159   24.4224 C   0  0  0  0  0  0  0  0  0  0  0  0
    3.4740   -9.0387   16.5022 C   0  0  0  0  0  0  0  0  0  0  0  0
    6.8384   -7.9290   17.5282 N   0  0  0  0  0  0  0  0  0  0  0  0
    9.4126   -5.9853   18.4899 C   0  0  0  0  0  0  0  0  0  0  0  0
    4.2064  -10.3242   18.3302 C   0  0  0  0  0  0  0  0  0  0  0  0
    9.6599   -4.1551   16.4796 N   0  0  0  0  0  0  0  0  0  0  0  0
    7.0644   -6.4612   15.7375 N   0  0  0  0  0  0  0  0  0  0  0  0
    5.3549   -9.6322   18.3190 C   0  0  0  0  0  0  0  0  0  0  0  0
   10.3704   -4.9638   18.6510 C   0  0  0  0  0  0  0  0  0  0  0  0
    5.5935   -8.6419   17.4234 C   0  0  0  0  0  0  0  0  0  0  0  0
   13.0726   -4.6648   23.3394 O   0  0  0  0  0  0  0  0  0  0  0  0
    8.5955   -6.0705   17.3996 C   0  0  0  0  0  0  0  0  0  0  0  0
    4.6223   -8.3832   16.5030 C   0  0  0  0  0  0  0  0  0  0  0  0
   12.4690   -5.2624   19.9024 C   0  0  0  0  0  0  0  0  0  0  0  0
    3.2548   -9.9919   17.4189 C   0  0  0  0  0  0  0  0  0  0  0  0
   12.4767   -4.7393   22.1790 C   0  0  0  0  0  0  0  0  0  0  0  0
    7.8593   -5.3772   15.3569 N   0  0  0  0  0  0  0  0  0  0  0  0
    7.4412   -6.9038   16.9283 C   0  0  0  0  0  0  0  0  0  0  0  0
  1 21  4  0
  1 23  4  0
  2  5  1  0
  2 13  4  0
  2 16  4  0
  3  6  4  0
  3  7  4  0
  4 13  4  0
  4 19  4  0
  4 24  4  0
  6 23  4  0
  7 16  1  0
  7 21  4  0
  8 18  1  0
  9 20  4  0
  9 22  4  0
 10 17  1  0
 10 25  1  0
 11 16  4  0
 11 19  4  0
 12 15  4  0
 12 22  4  0
 14 24  4  0
 14 25  4  0
 15 17  4  0
 17 20  4  0
 18 23  1  0
 19 25  4  0
M  END
$$$$

 Created by Python create_sdf_string function

 25 28  0  0  0  0  0  0  0  0999 V2000
   13.1533   -5.2399   21.0682 C   0  0  0  0  0  0  0  0  0  0  0  0
   10.4729   -4.0295   17.6135 C   0  0  0  0  0  0  0  0  0  0  0  0
   10.4789   -4.3641   20.9564 C   0  0  0  0  0  0  0  0  0  0  0  0
    8.7421   -5.1412   16.3650 C   0  0  0  0  0  0  0  0  0  0  0  0
   11.4353   -2.9204   17.8044 C   0  0  0  0  0  0  0  0  0  0  0  0
   11.1529   -4.3028   22.1277 C   0  0  0  0  0  0  0  0  0  0  0  0
   11.1290   -4.8502   19.8052 C   0  0  0  0  0  0  0  0  0  0  0  0
   12.4329   -4.2159   24.4224 C   0  0  0  0  0  0  0  0  0  0  0  0
    3.4740   -9.0387   16.5022 C   0  0  0  0  0  0  0  0  0  0  0  0
    6.8384   -7.9290   17.5282 N   0  0  0  0  0  0  0  0  0  0  0  0
    9.4126   -5.9853   18.4899 C   0  0  0  0  0  0  0  0  0  0  0  0
    4.2064  -10.3242   18.3302 C   0  0  0  0  0  0  0  0  0  0  0  0
    9.6599   -4.1551   16.4796 N   0  0  0  0  0  0  0  0  0  0  0  0
    7.0644   -6.4612   15.7375 N   0  0  0  0  0  0  0  0  0  0  0  0
    5.3549   -9.6322   18.3190 C   0  0  0  0  0  0  0  0  0  0  0  0
   10.3704   -4.9638   18.6510 C   0  0  0  0  0  0  0  0  0  0  0  0
    5.5935   -8.6419   17.4234 C   0  0  0  0  0  0  0  0  0  0  0  0
   13.0726   -4.6648   23.3394 O   0  0  0  0  0  0  0  0  0  0  0  0
    8.5955   -6.0705   17.3996 C   0  0  0  0  0  0  0  0  0  0  0  0
    4.6223   -8.3832   16.5030 C   0  0  0  0  0  0  0  0  0  0  0  0
   12.4690   -5.2624   19.9024 C   0  0  0  0  0  0  0  0  0  0  0  0
    3.2548   -9.9919   17.4189 C   0  0  0  0  0  0  0  0  0  0  0  0
   12.4767   -4.7393   22.1790 C   0  0  0  0  0  0  0  0  0  0  0  0
    7.8593   -5.3772   15.3569 N   0  0  0  0  0  0  0  0  0  0  0  0
    7.4412   -6.9038   16.9283 C   0  0  0  0  0  0  0  0  0  0  0  0
  1 21  4  0
  1 23  4  0
  2  5  1  0
  2 13  4  0
  2 16  4  0
  3  6  4  0
  3  7  4  0
  4 13  4  0
  4 19  4  0
  4 24  4  0
  6 23  4  0
  7 16  1  0
  7 21  4  0
  8 18  1  0
  9 20  4  0
  9 22  4  0
 10 17  1  0
 10 25  1  0
 11 16  4  0
 11 19  4  0
 12 15  4  0
 12 22  4  0
 14 24  4  0
 14 25  4  0
 15 17  4  0
 17 20  4  0
 18 23  1  0
 19 25  4  0
M  END
$$$$

 Created by Python create_sdf_string function

 25 28  0  0  0  0  0  0  0  0999 V2000
   13.1533   -5.2399   21.0682 C   0  0  0  0  0  0  0  0  0  0  0  0
   10.4729   -4.0295   17.6135 C   0  0  0  0  0  0  0  0  0  0  0  0
   10.4789   -4.3641   20.9564 C   0  0  0  0  0  0  0  0  0  0  0  0
    8.7421   -5.1412   16.3650 C   0  0  0  0  0  0  0  0  0  0  0  0
   11.4353   -2.9204   17.8044 C   0  0  0  0  0  0  0  0  0  0  0  0
   11.1529   -4.3028   22.1277 C   0  0  0  0  0  0  0  0  0  0  0  0
   11.1290   -4.8502   19.8052 C   0  0  0  0  0  0  0  0  0  0  0  0
   12.4329   -4.2159   24.4224 C   0  0  0  0  0  0  0  0  0  0  0  0
    3.4740   -9.0387   16.5022 C   0  0  0  0  0  0  0  0  0  0  0  0
    6.8384   -7.9290   17.5282 N   0  0  0  0  0  0  0  0  0  0  0  0
    9.4126   -5.9853   18.4899 C   0  0  0  0  0  0  0  0  0  0  0  0
    4.2064  -10.3242   18.3302 C   0  0  0  0  0  0  0  0  0  0  0  0
    9.6599   -4.1551   16.4796 N   0  0  0  0  0  0  0  0  0  0  0  0
    7.0644   -6.4612   15.7375 N   0  0  0  0  0  0  0  0  0  0  0  0
    5.3549   -9.6322   18.3190 C   0  0  0  0  0  0  0  0  0  0  0  0
   10.3704   -4.9638   18.6510 C   0  0  0  0  0  0  0  0  0  0  0  0
    5.5935   -8.6419   17.4234 C   0  0  0  0  0  0  0  0  0  0  0  0
   13.0726   -4.6648   23.3394 O   0  0  0  0  0  0  0  0  0  0  0  0
    8.5955   -6.0705   17.3996 C   0  0  0  0  0  0  0  0  0  0  0  0
    4.6223   -8.3832   16.5030 C   0  0  0  0  0  0  0  0  0  0  0  0
   12.4690   -5.2624   19.9024 C   0  0  0  0  0  0  0  0  0  0  0  0
    3.2548   -9.9919   17.4189 C   0  0  0  0  0  0  0  0  0  0  0  0
   12.4767   -4.7393   22.1790 C   0  0  0  0  0  0  0  0  0  0  0  0
    7.8593   -5.3772   15.3569 N   0  0  0  0  0  0  0  0  0  0  0  0
    7.4412   -6.9038   16.9283 C   0  0  0  0  0  0  0  0  0  0  0  0
  1 21  4  0
  1 23  4  0
  2  5  1  0
  2 13  4  0
  2 16  4  0
  3  6  4  0
  3  7  4  0
  4 13  4  0
  4 19  4  0
  4 24  4  0
  6 23  4  0
  7 16  1  0
  7 21  4  0
  8 18  1  0
  9 20  4  0
  9 22  4  0
 10 17  1  0
 10 25  1  0
 11 16  4  0
 11 19  4  0
 12 15  4  0
 12 22  4  0
 14 24  4  0
 14 25  4  0
 15 17  4  0
 17 20  4  0
 18 23  1  0
 19 25  4  0
M  END
$$$$

 Created by Python create_sdf_string function

 25 28  0  0  0  0  0  0  0  0999 V2000
   13.1533   -5.2399   21.0682 C   0  0  0  0  0  0  0  0  0  0  0  0
   10.4729   -4.0295   17.6135 C   0  0  0  0  0  0  0  0  0  0  0  0
   10.4789   -4.3641   20.9564 C   0  0  0  0  0  0  0  0  0  0  0  0
    8.7421   -5.1412   16.3650 C   0  0  0  0  0  0  0  0  0  0  0  0
   11.4353   -2.9204   17.8044 C   0  0  0  0  0  0  0  0  0  0  0  0
   11.1529   -4.3028   22.1277 C   0  0  0  0  0  0  0  0  0  0  0  0
   11.1290   -4.8502   19.8052 C   0  0  0  0  0  0  0  0  0  0  0  0
   12.4329   -4.2159   24.4224 C   0  0  0  0  0  0  0  0  0  0  0  0
    3.4740   -9.0387   16.5022 C   0  0  0  0  0  0  0  0  0  0  0  0
    6.8384   -7.9290   17.5282 N   0  0  0  0  0  0  0  0  0  0  0  0
    9.4126   -5.9853   18.4899 C   0  0  0  0  0  0  0  0  0  0  0  0
    4.2064  -10.3242   18.3302 C   0  0  0  0  0  0  0  0  0  0  0  0
    9.6599   -4.1551   16.4796 N   0  0  0  0  0  0  0  0  0  0  0  0
    7.0644   -6.4612   15.7375 N   0  0  0  0  0  0  0  0  0  0  0  0
    5.3549   -9.6322   18.3190 C   0  0  0  0  0  0  0  0  0  0  0  0
   10.3704   -4.9638   18.6510 C   0  0  0  0  0  0  0  0  0  0  0  0
    5.5935   -8.6419   17.4234 C   0  0  0  0  0  0  0  0  0  0  0  0
   13.0726   -4.6648   23.3394 O   0  0  0  0  0  0  0  0  0  0  0  0
    8.5955   -6.0705   17.3996 C   0  0  0  0  0  0  0  0  0  0  0  0
    4.6223   -8.3832   16.5030 C   0  0  0  0  0  0  0  0  0  0  0  0
   12.4690   -5.2624   19.9024 C   0  0  0  0  0  0  0  0  0  0  0  0
    3.2548   -9.9919   17.4189 C   0  0  0  0  0  0  0  0  0  0  0  0
   12.4767   -4.7393   22.1790 C   0  0  0  0  0  0  0  0  0  0  0  0
    7.8593   -5.3772   15.3569 N   0  0  0  0  0  0  0  0  0  0  0  0
    7.4412   -6.9038   16.9283 C   0  0  0  0  0  0  0  0  0  0  0  0
  1 21  4  0
  1 23  4  0
  2  5  1  0
  2 13  4  0
  2 16  4  0
  3  6  4  0
  3  7  4  0
  4 13  4  0
  4 19  4  0
  4 24  4  0
  6 23  4  0
  7 16  1  0
  7 21  4  0
  8 18  1  0
  9 20  4  0
  9 22  4  0
 10 17  1  0
 10 25  1  0
 11 16  4  0
 11 19  4  0
 12 15  4  0
 12 22  4  0
 14 24  4  0
 14 25  4  0
 15 17  4  0
 17 20  4  0
 18 23  1  0
 19 25  4  0
M  END
$$$$

 Created by Python create_sdf_string function

 25 28  0  0  0  0  0  0  0  0999 V2000
   13.1533   -5.2399   21.0682 C   0  0  0  0  0  0  0  0  0  0  0  0
   10.4729   -4.0295   17.6135 C   0  0  0  0  0  0  0  0  0  0  0  0
   10.4789   -4.3641   20.9564 C   0  0  0  0  0  0  0  0  0  0  0  0
    8.7421   -5.1412   16.3650 C   0  0  0  0  0  0  0  0  0  0  0  0
   11.4353   -2.9204   17.8044 C   0  0  0  0  0  0  0  0  0  0  0  0
   11.1529   -4.3028   22.1277 C   0  0  0  0  0  0  0  0  0  0  0  0
   11.1290   -4.8502   19.8052 C   0  0  0  0  0  0  0  0  0  0  0  0
   12.4329   -4.2159   24.4224 C   0  0  0  0  0  0  0  0  0  0  0  0
    3.4740   -9.0387   16.5022 C   0  0  0  0  0  0  0  0  0  0  0  0
    6.8384   -7.9290   17.5282 N   0  0  0  0  0  0  0  0  0  0  0  0
    9.4126   -5.9853   18.4899 C   0  0  0  0  0  0  0  0  0  0  0  0
    4.2064  -10.3242   18.3302 C   0  0  0  0  0  0  0  0  0  0  0  0
    9.6599   -4.1551   16.4796 N   0  0  0  0  0  0  0  0  0  0  0  0
    7.0644   -6.4612   15.7375 N   0  0  0  0  0  0  0  0  0  0  0  0
    5.3549   -9.6322   18.3190 C   0  0  0  0  0  0  0  0  0  0  0  0
   10.3704   -4.9638   18.6510 C   0  0  0  0  0  0  0  0  0  0  0  0
    5.5935   -8.6419   17.4234 C   0  0  0  0  0  0  0  0  0  0  0  0
   13.0726   -4.6648   23.3394 O   0  0  0  0  0  0  0  0  0  0  0  0
    8.5955   -6.0705   17.3996 C   0  0  0  0  0  0  0  0  0  0  0  0
    4.6223   -8.3832   16.5030 C   0  0  0  0  0  0  0  0  0  0  0  0
   12.4690   -5.2624   19.9024 C   0  0  0  0  0  0  0  0  0  0  0  0
    3.2548   -9.9919   17.4189 C   0  0  0  0  0  0  0  0  0  0  0  0
   12.4767   -4.7393   22.1790 C   0  0  0  0  0  0  0  0  0  0  0  0
    7.8593   -5.3772   15.3569 N   0  0  0  0  0  0  0  0  0  0  0  0
    7.4412   -6.9038   16.9283 C   0  0  0  0  0  0  0  0  0  0  0  0
  1 21  4  0
  1 23  4  0
  2  5  1  0
  2 13  4  0
  2 16  4  0
  3  6  4  0
  3  7  4  0
  4 13  4  0
  4 19  4  0
  4 24  4  0
  6 23  4  0
  7 16  1  0
  7 21  4  0
  8 18  1  0
  9 20  4  0
  9 22  4  0
 10 17  1  0
 10 25  1  0
 11 16  4  0
 11 19  4  0
 12 15  4  0
 12 22  4  0
 14 24  4  0
 14 25  4  0
 15 17  4  0
 17 20  4  0
 18 23  1  0
 19 25  4  0
M  END
$$$$

 Created by Python create_sdf_string function

 25 28  0  0  0  0  0  0  0  0999 V2000
   13.1533   -5.2399   21.0682 C   0  0  0  0  0  0  0  0  0  0  0  0
   10.4729   -4.0295   17.6135 C   0  0  0  0  0  0  0  0  0  0  0  0
   10.4789   -4.3641   20.9564 C   0  0  0  0  0  0  0  0  0  0  0  0
    8.7421   -5.1412   16.3650 C   0  0  0  0  0  0  0  0  0  0  0  0
   11.4353   -2.9204   17.8044 C   0  0  0  0  0  0  0  0  0  0  0  0
   11.1529   -4.3028   22.1277 C   0  0  0  0  0  0  0  0  0  0  0  0
   11.1290   -4.8502   19.8052 C   0  0  0  0  0  0  0  0  0  0  0  0
   12.4329   -4.2159   24.4224 C   0  0  0  0  0  0  0  0  0  0  0  0
    3.4740   -9.0387   16.5022 C   0  0  0  0  0  0  0  0  0  0  0  0
    6.8384   -7.9290   17.5282 N   0  0  0  0  0  0  0  0  0  0  0  0
    9.4126   -5.9853   18.4899 C   0  0  0  0  0  0  0  0  0  0  0  0
    4.2064  -10.3242   18.3302 C   0  0  0  0  0  0  0  0  0  0  0  0
    9.6599   -4.1551   16.4796 N   0  0  0  0  0  0  0  0  0  0  0  0
    7.0644   -6.4612   15.7375 N   0  0  0  0  0  0  0  0  0  0  0  0
    5.3549   -9.6322   18.3190 C   0  0  0  0  0  0  0  0  0  0  0  0
   10.3704   -4.9638   18.6510 C   0  0  0  0  0  0  0  0  0  0  0  0
    5.5935   -8.6419   17.4234 C   0  0  0  0  0  0  0  0  0  0  0  0
   13.0726   -4.6648   23.3394 O   0  0  0  0  0  0  0  0  0  0  0  0
    8.5955   -6.0705   17.3996 C   0  0  0  0  0  0  0  0  0  0  0  0
    4.6223   -8.3832   16.5030 C   0  0  0  0  0  0  0  0  0  0  0  0
   12.4690   -5.2624   19.9024 C   0  0  0  0  0  0  0  0  0  0  0  0
    3.2548   -9.9919   17.4189 C   0  0  0  0  0  0  0  0  0  0  0  0
   12.4767   -4.7393   22.1790 C   0  0  0  0  0  0  0  0  0  0  0  0
    7.8593   -5.3772   15.3569 N   0  0  0  0  0  0  0  0  0  0  0  0
    7.4412   -6.9038   16.9283 C   0  0  0  0  0  0  0  0  0  0  0  0
  1 21  4  0
  1 23  4  0
  2  5  1  0
  2 13  4  0
  2 16  4  0
  3  6  4  0
  3  7  4  0
  4 13  4  0
  4 19  4  0
  4 24  4  0
  6 23  4  0
  7 16  1  0
  7 21  4  0
  8 18  1  0
  9 20  4  0
  9 22  4  0
 10 17  1  0
 10 25  1  0
 11 16  4  0
 11 19  4  0
 12 15  4  0
 12 22  4  0
 14 24  4  0
 14 25  4  0
 15 17  4  0
 17 20  4  0
 18 23  1  0
 19 25  4  0
M  END
$$$$

 Created by Python create_sdf_string function

 25 28  0  0  0  0  0  0  0  0999 V2000
   13.1533   -5.2399   21.0682 C   0  0  0  0  0  0  0  0  0  0  0  0
   10.4729   -4.0295   17.6135 C   0  0  0  0  0  0  0  0  0  0  0  0
   10.4789   -4.3641   20.9564 C   0  0  0  0  0  0  0  0  0  0  0  0
    8.7421   -5.1412   16.3650 C   0  0  0  0  0  0  0  0  0  0  0  0
   11.4353   -2.9204   17.8044 C   0  0  0  0  0  0  0  0  0  0  0  0
   11.1529   -4.3028   22.1277 C   0  0  0  0  0  0  0  0  0  0  0  0
   11.1290   -4.8502   19.8052 C   0  0  0  0  0  0  0  0  0  0  0  0
   12.4329   -4.2159   24.4224 C   0  0  0  0  0  0  0  0  0  0  0  0
    3.4740   -9.0387   16.5022 C   0  0  0  0  0  0  0  0  0  0  0  0
    6.8384   -7.9290   17.5282 N   0  0  0  0  0  0  0  0  0  0  0  0
    9.4126   -5.9853   18.4899 C   0  0  0  0  0  0  0  0  0  0  0  0
    4.2064  -10.3242   18.3302 C   0  0  0  0  0  0  0  0  0  0  0  0
    9.6599   -4.1551   16.4796 N   0  0  0  0  0  0  0  0  0  0  0  0
    7.0644   -6.4612   15.7375 N   0  0  0  0  0  0  0  0  0  0  0  0
    5.3549   -9.6322   18.3190 C   0  0  0  0  0  0  0  0  0  0  0  0
   10.3704   -4.9638   18.6510 C   0  0  0  0  0  0  0  0  0  0  0  0
    5.5935   -8.6419   17.4234 C   0  0  0  0  0  0  0  0  0  0  0  0
   13.0726   -4.6648   23.3394 O   0  0  0  0  0  0  0  0  0  0  0  0
    8.5955   -6.0705   17.3996 C   0  0  0  0  0  0  0  0  0  0  0  0
    4.6223   -8.3832   16.5030 C   0  0  0  0  0  0  0  0  0  0  0  0
   12.4690   -5.2624   19.9024 C   0  0  0  0  0  0  0  0  0  0  0  0
    3.2548   -9.9919   17.4189 C   0  0  0  0  0  0  0  0  0  0  0  0
   12.4767   -4.7393   22.1790 C   0  0  0  0  0  0  0  0  0  0  0  0
    7.8593   -5.3772   15.3569 N   0  0  0  0  0  0  0  0  0  0  0  0
    7.4412   -6.9038   16.9283 C   0  0  0  0  0  0  0  0  0  0  0  0
  1 21  4  0
  1 23  4  0
  2  5  1  0
  2 13  4  0
  2 16  4  0
  3  6  4  0
  3  7  4  0
  4 13  4  0
  4 19  4  0
  4 24  4  0
  6 23  4  0
  7 16  1  0
  7 21  4  0
  8 18  1  0
  9 20  4  0
  9 22  4  0
 10 17  1  0
 10 25  1  0
 11 16  4  0
 11 19  4  0
 12 15  4  0
 12 22  4  0
 14 24  4  0
 14 25  4  0
 15 17  4  0
 17 20  4  0
 18 23  1  0
 19 25  4  0
M  END
$$$$

 Created by Python create_sdf_string function

 25 28  0  0  0  0  0  0  0  0999 V2000
   13.1533   -5.2399   21.0682 C   0  0  0  0  0  0  0  0  0  0  0  0
   10.4729   -4.0295   17.6135 C   0  0  0  0  0  0  0  0  0  0  0  0
   10.4789   -4.3641   20.9564 C   0  0  0  0  0  0  0  0  0  0  0  0
    8.7421   -5.1412   16.3650 C   0  0  0  0  0  0  0  0  0  0  0  0
   11.4353   -2.9204   17.8044 C   0  0  0  0  0  0  0  0  0  0  0  0
   11.1529   -4.3028   22.1277 C   0  0  0  0  0  0  0  0  0  0  0  0
   11.1290   -4.8502   19.8052 C   0  0  0  0  0  0  0  0  0  0  0  0
   12.4329   -4.2159   24.4224 C   0  0  0  0  0  0  0  0  0  0  0  0
    3.4740   -9.0387   16.5022 C   0  0  0  0  0  0  0  0  0  0  0  0
    6.8384   -7.9290   17.5282 N   0  0  0  0  0  0  0  0  0  0  0  0
    9.4126   -5.9853   18.4899 C   0  0  0  0  0  0  0  0  0  0  0  0
    4.2064  -10.3242   18.3302 C   0  0  0  0  0  0  0  0  0  0  0  0
    9.6599   -4.1551   16.4796 N   0  0  0  0  0  0  0  0  0  0  0  0
    7.0644   -6.4612   15.7375 N   0  0  0  0  0  0  0  0  0  0  0  0
    5.3549   -9.6322   18.3190 C   0  0  0  0  0  0  0  0  0  0  0  0
   10.3704   -4.9638   18.6510 C   0  0  0  0  0  0  0  0  0  0  0  0
    5.5935   -8.6419   17.4234 C   0  0  0  0  0  0  0  0  0  0  0  0
   13.0726   -4.6648   23.3394 O   0  0  0  0  0  0  0  0  0  0  0  0
    8.5955   -6.0705   17.3996 C   0  0  0  0  0  0  0  0  0  0  0  0
    4.6223   -8.3832   16.5030 C   0  0  0  0  0  0  0  0  0  0  0  0
   12.4690   -5.2624   19.9024 C   0  0  0  0  0  0  0  0  0  0  0  0
    3.2548   -9.9919   17.4189 C   0  0  0  0  0  0  0  0  0  0  0  0
   12.4767   -4.7393   22.1790 C   0  0  0  0  0  0  0  0  0  0  0  0
    7.8593   -5.3772   15.3569 N   0  0  0  0  0  0  0  0  0  0  0  0
    7.4412   -6.9038   16.9283 C   0  0  0  0  0  0  0  0  0  0  0  0
  1 21  4  0
  1 23  4  0
  2  5  1  0
  2 13  4  0
  2 16  4  0
  3  6  4  0
  3  7  4  0
  4 13  4  0
  4 19  4  0
  4 24  4  0
  6 23  4  0
  7 16  1  0
  7 21  4  0
  8 18  1  0
  9 20  4  0
  9 22  4  0
 10 17  1  0
 10 25  1  0
 11 16  4  0
 11 19  4  0
 12 15  4  0
 12 22  4  0
 14 24  4  0
 14 25  4  0
 15 17  4  0
 17 20  4  0
 18 23  1  0
 19 25  4  0
M  END
$$$$

 Created by Python create_sdf_string function

 25 28  0  0  0  0  0  0  0  0999 V2000
   13.1533   -5.2399   21.0682 C   0  0  0  0  0  0  0  0  0  0  0  0
   10.4729   -4.0295   17.6135 C   0  0  0  0  0  0  0  0  0  0  0  0
   10.4789   -4.3641   20.9564 C   0  0  0  0  0  0  0  0  0  0  0  0
    8.7421   -5.1412   16.3650 C   0  0  0  0  0  0  0  0  0  0  0  0
   11.4353   -2.9204   17.8044 C   0  0  0  0  0  0  0  0  0  0  0  0
   11.1529   -4.3028   22.1277 C   0  0  0  0  0  0  0  0  0  0  0  0
   11.1290   -4.8502   19.8052 C   0  0  0  0  0  0  0  0  0  0  0  0
   12.4329   -4.2159   24.4224 C   0  0  0  0  0  0  0  0  0  0  0  0
    3.4740   -9.0387   16.5022 C   0  0  0  0  0  0  0  0  0  0  0  0
    6.8384   -7.9290   17.5282 N   0  0  0  0  0  0  0  0  0  0  0  0
    9.4126   -5.9853   18.4899 C   0  0  0  0  0  0  0  0  0  0  0  0
    4.2064  -10.3242   18.3302 C   0  0  0  0  0  0  0  0  0  0  0  0
    9.6599   -4.1551   16.4796 N   0  0  0  0  0  0  0  0  0  0  0  0
    7.0644   -6.4612   15.7375 N   0  0  0  0  0  0  0  0  0  0  0  0
    5.3549   -9.6322   18.3190 C   0  0  0  0  0  0  0  0  0  0  0  0
   10.3704   -4.9638   18.6510 C   0  0  0  0  0  0  0  0  0  0  0  0
    5.5935   -8.6419   17.4234 C   0  0  0  0  0  0  0  0  0  0  0  0
   13.0726   -4.6648   23.3394 O   0  0  0  0  0  0  0  0  0  0  0  0
    8.5955   -6.0705   17.3996 C   0  0  0  0  0  0  0  0  0  0  0  0
    4.6223   -8.3832   16.5030 C   0  0  0  0  0  0  0  0  0  0  0  0
   12.4690   -5.2624   19.9024 C   0  0  0  0  0  0  0  0  0  0  0  0
    3.2548   -9.9919   17.4189 C   0  0  0  0  0  0  0  0  0  0  0  0
   12.4767   -4.7393   22.1790 C   0  0  0  0  0  0  0  0  0  0  0  0
    7.8593   -5.3772   15.3569 N   0  0  0  0  0  0  0  0  0  0  0  0
    7.4412   -6.9038   16.9283 C   0  0  0  0  0  0  0  0  0  0  0  0
  1 21  4  0
  1 23  4  0
  2  5  1  0
  2 13  4  0
  2 16  4  0
  3  6  4  0
  3  7  4  0
  4 13  4  0
  4 19  4  0
  4 24  4  0
  6 23  4  0
  7 16  1  0
  7 21  4  0
  8 18  1  0
  9 20  4  0
  9 22  4  0
 10 17  1  0
 10 25  1  0
 11 16  4  0
 11 19  4  0
 12 15  4  0
 12 22  4  0
 14 24  4  0
 14 25  4  0
 15 17  4  0
 17 20  4  0
 18 23  1  0
 19 25  4  0
M  END
$$$$

 Created by Python create_sdf_string function

 25 28  0  0  0  0  0  0  0  0999 V2000
   13.1533   -5.2399   21.0682 C   0  0  0  0  0  0  0  0  0  0  0  0
   10.4729   -4.0295   17.6135 C   0  0  0  0  0  0  0  0  0  0  0  0
   10.4789   -4.3641   20.9564 C   0  0  0  0  0  0  0  0  0  0  0  0
    8.7421   -5.1412   16.3650 C   0  0  0  0  0  0  0  0  0  0  0  0
   11.4353   -2.9204   17.8044 C   0  0  0  0  0  0  0  0  0  0  0  0
   11.1529   -4.3028   22.1277 C   0  0  0  0  0  0  0  0  0  0  0  0
   11.1290   -4.8502   19.8052 C   0  0  0  0  0  0  0  0  0  0  0  0
   12.4329   -4.2159   24.4224 C   0  0  0  0  0  0  0  0  0  0  0  0
    3.4740   -9.0387   16.5022 C   0  0  0  0  0  0  0  0  0  0  0  0
    6.8384   -7.9290   17.5282 N   0  0  0  0  0  0  0  0  0  0  0  0
    9.4126   -5.9853   18.4899 C   0  0  0  0  0  0  0  0  0  0  0  0
    4.2064  -10.3242   18.3302 C   0  0  0  0  0  0  0  0  0  0  0  0
    9.6599   -4.1551   16.4796 N   0  0  0  0  0  0  0  0  0  0  0  0
    7.0644   -6.4612   15.7375 N   0  0  0  0  0  0  0  0  0  0  0  0
    5.3549   -9.6322   18.3190 C   0  0  0  0  0  0  0  0  0  0  0  0
   10.3704   -4.9638   18.6510 C   0  0  0  0  0  0  0  0  0  0  0  0
    5.5935   -8.6419   17.4234 C   0  0  0  0  0  0  0  0  0  0  0  0
   13.0726   -4.6648   23.3394 O   0  0  0  0  0  0  0  0  0  0  0  0
    8.5955   -6.0705   17.3996 C   0  0  0  0  0  0  0  0  0  0  0  0
    4.6223   -8.3832   16.5030 C   0  0  0  0  0  0  0  0  0  0  0  0
   12.4690   -5.2624   19.9024 C   0  0  0  0  0  0  0  0  0  0  0  0
    3.2548   -9.9919   17.4189 C   0  0  0  0  0  0  0  0  0  0  0  0
   12.4767   -4.7393   22.1790 C   0  0  0  0  0  0  0  0  0  0  0  0
    7.8593   -5.3772   15.3569 N   0  0  0  0  0  0  0  0  0  0  0  0
    7.4412   -6.9038   16.9283 C   0  0  0  0  0  0  0  0  0  0  0  0
  1 21  4  0
  1 23  4  0
  2  5  1  0
  2 13  4  0
  2 16  4  0
  3  6  4  0
  3  7  4  0
  4 13  4  0
  4 19  4  0
  4 24  4  0
  6 23  4  0
  7 16  1  0
  7 21  4  0
  8 18  1  0
  9 20  4  0
  9 22  4  0
 10 17  1  0
 10 25  1  0
 11 16  4  0
 11 19  4  0
 12 15  4  0
 12 22  4  0
 14 24  4  0
 14 25  4  0
 15 17  4  0
 17 20  4  0
 18 23  1  0
 19 25  4  0
M  END
$$$$

 Created by Python create_sdf_string function

 25 28  0  0  0  0  0  0  0  0999 V2000
   13.1533   -5.2399   21.0682 C   0  0  0  0  0  0  0  0  0  0  0  0
   10.4729   -4.0295   17.6135 C   0  0  0  0  0  0  0  0  0  0  0  0
   10.4789   -4.3641   20.9564 C   0  0  0  0  0  0  0  0  0  0  0  0
    8.7421   -5.1412   16.3650 C   0  0  0  0  0  0  0  0  0  0  0  0
   11.4353   -2.9204   17.8044 C   0  0  0  0  0  0  0  0  0  0  0  0
   11.1529   -4.3028   22.1277 C   0  0  0  0  0  0  0  0  0  0  0  0
   11.1290   -4.8502   19.8052 C   0  0  0  0  0  0  0  0  0  0  0  0
   12.4329   -4.2159   24.4224 C   0  0  0  0  0  0  0  0  0  0  0  0
    3.4740   -9.0387   16.5022 C   0  0  0  0  0  0  0  0  0  0  0  0
    6.8384   -7.9290   17.5282 N   0  0  0  0  0  0  0  0  0  0  0  0
    9.4126   -5.9853   18.4899 C   0  0  0  0  0  0  0  0  0  0  0  0
    4.2064  -10.3242   18.3302 C   0  0  0  0  0  0  0  0  0  0  0  0
    9.6599   -4.1551   16.4796 N   0  0  0  0  0  0  0  0  0  0  0  0
    7.0644   -6.4612   15.7375 N   0  0  0  0  0  0  0  0  0  0  0  0
    5.3549   -9.6322   18.3190 C   0  0  0  0  0  0  0  0  0  0  0  0
   10.3704   -4.9638   18.6510 C   0  0  0  0  0  0  0  0  0  0  0  0
    5.5935   -8.6419   17.4234 C   0  0  0  0  0  0  0  0  0  0  0  0
   13.0726   -4.6648   23.3394 O   0  0  0  0  0  0  0  0  0  0  0  0
    8.5955   -6.0705   17.3996 C   0  0  0  0  0  0  0  0  0  0  0  0
    4.6223   -8.3832   16.5030 C   0  0  0  0  0  0  0  0  0  0  0  0
   12.4690   -5.2624   19.9024 C   0  0  0  0  0  0  0  0  0  0  0  0
    3.2548   -9.9919   17.4189 C   0  0  0  0  0  0  0  0  0  0  0  0
   12.4767   -4.7393   22.1790 C   0  0  0  0  0  0  0  0  0  0  0  0
    7.8593   -5.3772   15.3569 N   0  0  0  0  0  0  0  0  0  0  0  0
    7.4412   -6.9038   16.9283 C   0  0  0  0  0  0  0  0  0  0  0  0
  1 21  4  0
  1 23  4  0
  2  5  1  0
  2 13  4  0
  2 16  4  0
  3  6  4  0
  3  7  4  0
  4 13  4  0
  4 19  4  0
  4 24  4  0
  6 23  4  0
  7 16  1  0
  7 21  4  0
  8 18  1  0
  9 20  4  0
  9 22  4  0
 10 17  1  0
 10 25  1  0
 11 16  4  0
 11 19  4  0
 12 15  4  0
 12 22  4  0
 14 24  4  0
 14 25  4  0
 15 17  4  0
 17 20  4  0
 18 23  1  0
 19 25  4  0
M  END
$$$$

 Created by Python create_sdf_string function

 25 28  0  0  0  0  0  0  0  0999 V2000
   13.1533   -5.2399   21.0682 C   0  0  0  0  0  0  0  0  0  0  0  0
   10.4729   -4.0295   17.6135 C   0  0  0  0  0  0  0  0  0  0  0  0
   10.4789   -4.3641   20.9564 C   0  0  0  0  0  0  0  0  0  0  0  0
    8.7421   -5.1412   16.3650 C   0  0  0  0  0  0  0  0  0  0  0  0
   11.4353   -2.9204   17.8044 C   0  0  0  0  0  0  0  0  0  0  0  0
   11.1529   -4.3028   22.1277 C   0  0  0  0  0  0  0  0  0  0  0  0
   11.1290   -4.8502   19.8052 C   0  0  0  0  0  0  0  0  0  0  0  0
   12.4329   -4.2159   24.4224 C   0  0  0  0  0  0  0  0  0  0  0  0
    3.4740   -9.0387   16.5022 C   0  0  0  0  0  0  0  0  0  0  0  0
    6.8384   -7.9290   17.5282 N   0  0  0  0  0  0  0  0  0  0  0  0
    9.4126   -5.9853   18.4899 C   0  0  0  0  0  0  0  0  0  0  0  0
    4.2064  -10.3242   18.3302 C   0  0  0  0  0  0  0  0  0  0  0  0
    9.6599   -4.1551   16.4796 N   0  0  0  0  0  0  0  0  0  0  0  0
    7.0644   -6.4612   15.7375 N   0  0  0  0  0  0  0  0  0  0  0  0
    5.3549   -9.6322   18.3190 C   0  0  0  0  0  0  0  0  0  0  0  0
   10.3704   -4.9638   18.6510 C   0  0  0  0  0  0  0  0  0  0  0  0
    5.5935   -8.6419   17.4234 C   0  0  0  0  0  0  0  0  0  0  0  0
   13.0726   -4.6648   23.3394 O   0  0  0  0  0  0  0  0  0  0  0  0
    8.5955   -6.0705   17.3996 C   0  0  0  0  0  0  0  0  0  0  0  0
    4.6223   -8.3832   16.5030 C   0  0  0  0  0  0  0  0  0  0  0  0
   12.4690   -5.2624   19.9024 C   0  0  0  0  0  0  0  0  0  0  0  0
    3.2548   -9.9919   17.4189 C   0  0  0  0  0  0  0  0  0  0  0  0
   12.4767   -4.7393   22.1790 C   0  0  0  0  0  0  0  0  0  0  0  0
    7.8593   -5.3772   15.3569 N   0  0  0  0  0  0  0  0  0  0  0  0
    7.4412   -6.9038   16.9283 C   0  0  0  0  0  0  0  0  0  0  0  0
  1 21  4  0
  1 23  4  0
  2  5  1  0
  2 13  4  0
  2 16  4  0
  3  6  4  0
  3  7  4  0
  4 13  4  0
  4 19  4  0
  4 24  4  0
  6 23  4  0
  7 16  1  0
  7 21  4  0
  8 18  1  0
  9 20  4  0
  9 22  4  0
 10 17  1  0
 10 25  1  0
 11 16  4  0
 11 19  4  0
 12 15  4  0
 12 22  4  0
 14 24  4  0
 14 25  4  0
 15 17  4  0
 17 20  4  0
 18 23  1  0
 19 25  4  0
M  END
$$$$

 Created by Python create_sdf_string function

 25 28  0  0  0  0  0  0  0  0999 V2000
   13.1533   -5.2399   21.0682 C   0  0  0  0  0  0  0  0  0  0  0  0
   10.4729   -4.0295   17.6135 C   0  0  0  0  0  0  0  0  0  0  0  0
   10.4789   -4.3641   20.9564 C   0  0  0  0  0  0  0  0  0  0  0  0
    8.7421   -5.1412   16.3650 C   0  0  0  0  0  0  0  0  0  0  0  0
   11.4353   -2.9204   17.8044 C   0  0  0  0  0  0  0  0  0  0  0  0
   11.1529   -4.3028   22.1277 C   0  0  0  0  0  0  0  0  0  0  0  0
   11.1290   -4.8502   19.8052 C   0  0  0  0  0  0  0  0  0  0  0  0
   12.4329   -4.2159   24.4224 C   0  0  0  0  0  0  0  0  0  0  0  0
    3.4740   -9.0387   16.5022 C   0  0  0  0  0  0  0  0  0  0  0  0
    6.8384   -7.9290   17.5282 N   0  0  0  0  0  0  0  0  0  0  0  0
    9.4126   -5.9853   18.4899 C   0  0  0  0  0  0  0  0  0  0  0  0
    4.2064  -10.3242   18.3302 C   0  0  0  0  0  0  0  0  0  0  0  0
    9.6599   -4.1551   16.4796 N   0  0  0  0  0  0  0  0  0  0  0  0
    7.0644   -6.4612   15.7375 N   0  0  0  0  0  0  0  0  0  0  0  0
    5.3549   -9.6322   18.3190 C   0  0  0  0  0  0  0  0  0  0  0  0
   10.3704   -4.9638   18.6510 C   0  0  0  0  0  0  0  0  0  0  0  0
    5.5935   -8.6419   17.4234 C   0  0  0  0  0  0  0  0  0  0  0  0
   13.0726   -4.6648   23.3394 O   0  0  0  0  0  0  0  0  0  0  0  0
    8.5955   -6.0705   17.3996 C   0  0  0  0  0  0  0  0  0  0  0  0
    4.6223   -8.3832   16.5030 C   0  0  0  0  0  0  0  0  0  0  0  0
   12.4690   -5.2624   19.9024 C   0  0  0  0  0  0  0  0  0  0  0  0
    3.2548   -9.9919   17.4189 C   0  0  0  0  0  0  0  0  0  0  0  0
   12.4767   -4.7393   22.1790 C   0  0  0  0  0  0  0  0  0  0  0  0
    7.8593   -5.3772   15.3569 N   0  0  0  0  0  0  0  0  0  0  0  0
    7.4412   -6.9038   16.9283 C   0  0  0  0  0  0  0  0  0  0  0  0
  1 21  4  0
  1 23  4  0
  2  5  1  0
  2 13  4  0
  2 16  4  0
  3  6  4  0
  3  7  4  0
  4 13  4  0
  4 19  4  0
  4 24  4  0
  6 23  4  0
  7 16  1  0
  7 21  4  0
  8 18  1  0
  9 20  4  0
  9 22  4  0
 10 17  1  0
 10 25  1  0
 11 16  4  0
 11 19  4  0
 12 15  4  0
 12 22  4  0
 14 24  4  0
 14 25  4  0
 15 17  4  0
 17 20  4  0
 18 23  1  0
 19 25  4  0
M  END
$$$$

 Created by Python create_sdf_string function

 25 28  0  0  0  0  0  0  0  0999 V2000
   13.1533   -5.2399   21.0682 C   0  0  0  0  0  0  0  0  0  0  0  0
   10.4729   -4.0295   17.6135 C   0  0  0  0  0  0  0  0  0  0  0  0
   10.4789   -4.3641   20.9564 C   0  0  0  0  0  0  0  0  0  0  0  0
    8.7421   -5.1412   16.3650 C   0  0  0  0  0  0  0  0  0  0  0  0
   11.4353   -2.9204   17.8044 C   0  0  0  0  0  0  0  0  0  0  0  0
   11.1529   -4.3028   22.1277 C   0  0  0  0  0  0  0  0  0  0  0  0
   11.1290   -4.8502   19.8052 C   0  0  0  0  0  0  0  0  0  0  0  0
   12.4329   -4.2159   24.4224 C   0  0  0  0  0  0  0  0  0  0  0  0
    3.4740   -9.0387   16.5022 C   0  0  0  0  0  0  0  0  0  0  0  0
    6.8384   -7.9290   17.5282 N   0  0  0  0  0  0  0  0  0  0  0  0
    9.4126   -5.9853   18.4899 C   0  0  0  0  0  0  0  0  0  0  0  0
    4.2064  -10.3242   18.3302 C   0  0  0  0  0  0  0  0  0  0  0  0
    9.6599   -4.1551   16.4796 N   0  0  0  0  0  0  0  0  0  0  0  0
    7.0644   -6.4612   15.7375 N   0  0  0  0  0  0  0  0  0  0  0  0
    5.3549   -9.6322   18.3190 C   0  0  0  0  0  0  0  0  0  0  0  0
   10.3704   -4.9638   18.6510 C   0  0  0  0  0  0  0  0  0  0  0  0
    5.5935   -8.6419   17.4234 C   0  0  0  0  0  0  0  0  0  0  0  0
   13.0726   -4.6648   23.3394 O   0  0  0  0  0  0  0  0  0  0  0  0
    8.5955   -6.0705   17.3996 C   0  0  0  0  0  0  0  0  0  0  0  0
    4.6223   -8.3832   16.5030 C   0  0  0  0  0  0  0  0  0  0  0  0
   12.4690   -5.2624   19.9024 C   0  0  0  0  0  0  0  0  0  0  0  0
    3.2548   -9.9919   17.4189 C   0  0  0  0  0  0  0  0  0  0  0  0
   12.4767   -4.7393   22.1790 C   0  0  0  0  0  0  0  0  0  0  0  0
    7.8593   -5.3772   15.3569 N   0  0  0  0  0  0  0  0  0  0  0  0
    7.4412   -6.9038   16.9283 C   0  0  0  0  0  0  0  0  0  0  0  0
  1 21  4  0
  1 23  4  0
  2  5  1  0
  2 13  4  0
  2 16  4  0
  3  6  4  0
  3  7  4  0
  4 13  4  0
  4 19  4  0
  4 24  4  0
  6 23  4  0
  7 16  1  0
  7 21  4  0
  8 18  1  0
  9 20  4  0
  9 22  4  0
 10 17  1  0
 10 25  1  0
 11 16  4  0
 11 19  4  0
 12 15  4  0
 12 22  4  0
 14 24  4  0
 14 25  4  0
 15 17  4  0
 17 20  4  0
 18 23  1  0
 19 25  4  0
M  END
$$$$

 Created by Python create_sdf_string function

 25 28  0  0  0  0  0  0  0  0999 V2000
   13.1533   -5.2399   21.0682 C   0  0  0  0  0  0  0  0  0  0  0  0
   10.4729   -4.0295   17.6135 C   0  0  0  0  0  0  0  0  0  0  0  0
   10.4789   -4.3641   20.9564 C   0  0  0  0  0  0  0  0  0  0  0  0
    8.7421   -5.1412   16.3650 C   0  0  0  0  0  0  0  0  0  0  0  0
   11.4353   -2.9204   17.8044 C   0  0  0  0  0  0  0  0  0  0  0  0
   11.1529   -4.3028   22.1277 C   0  0  0  0  0  0  0  0  0  0  0  0
   11.1290   -4.8502   19.8052 C   0  0  0  0  0  0  0  0  0  0  0  0
   12.4329   -4.2159   24.4224 C   0  0  0  0  0  0  0  0  0  0  0  0
    3.4740   -9.0387   16.5022 C   0  0  0  0  0  0  0  0  0  0  0  0
    6.8384   -7.9290   17.5282 N   0  0  0  0  0  0  0  0  0  0  0  0
    9.4126   -5.9853   18.4899 C   0  0  0  0  0  0  0  0  0  0  0  0
    4.2064  -10.3242   18.3302 C   0  0  0  0  0  0  0  0  0  0  0  0
    9.6599   -4.1551   16.4796 N   0  0  0  0  0  0  0  0  0  0  0  0
    7.0644   -6.4612   15.7375 N   0  0  0  0  0  0  0  0  0  0  0  0
    5.3549   -9.6322   18.3190 C   0  0  0  0  0  0  0  0  0  0  0  0
   10.3704   -4.9638   18.6510 C   0  0  0  0  0  0  0  0  0  0  0  0
    5.5935   -8.6419   17.4234 C   0  0  0  0  0  0  0  0  0  0  0  0
   13.0726   -4.6648   23.3394 O   0  0  0  0  0  0  0  0  0  0  0  0
    8.5955   -6.0705   17.3996 C   0  0  0  0  0  0  0  0  0  0  0  0
    4.6223   -8.3832   16.5030 C   0  0  0  0  0  0  0  0  0  0  0  0
   12.4690   -5.2624   19.9024 C   0  0  0  0  0  0  0  0  0  0  0  0
    3.2548   -9.9919   17.4189 C   0  0  0  0  0  0  0  0  0  0  0  0
   12.4767   -4.7393   22.1790 C   0  0  0  0  0  0  0  0  0  0  0  0
    7.8593   -5.3772   15.3569 N   0  0  0  0  0  0  0  0  0  0  0  0
    7.4412   -6.9038   16.9283 C   0  0  0  0  0  0  0  0  0  0  0  0
  1 21  4  0
  1 23  4  0
  2  5  1  0
  2 13  4  0
  2 16  4  0
  3  6  4  0
  3  7  4  0
  4 13  4  0
  4 19  4  0
  4 24  4  0
  6 23  4  0
  7 16  1  0
  7 21  4  0
  8 18  1  0
  9 20  4  0
  9 22  4  0
 10 17  1  0
 10 25  1  0
 11 16  4  0
 11 19  4  0
 12 15  4  0
 12 22  4  0
 14 24  4  0
 14 25  4  0
 15 17  4  0
 17 20  4  0
 18 23  1  0
 19 25  4  0
M  END
$$$$

 Created by Python create_sdf_string function

 25 28  0  0  0  0  0  0  0  0999 V2000
   13.1533   -5.2399   21.0682 C   0  0  0  0  0  0  0  0  0  0  0  0
   10.4729   -4.0295   17.6135 C   0  0  0  0  0  0  0  0  0  0  0  0
   10.4789   -4.3641   20.9564 C   0  0  0  0  0  0  0  0  0  0  0  0
    8.7421   -5.1412   16.3650 C   0  0  0  0  0  0  0  0  0  0  0  0
   11.4353   -2.9204   17.8044 C   0  0  0  0  0  0  0  0  0  0  0  0
   11.1529   -4.3028   22.1277 C   0  0  0  0  0  0  0  0  0  0  0  0
   11.1290   -4.8502   19.8052 C   0  0  0  0  0  0  0  0  0  0  0  0
   12.4329   -4.2159   24.4224 C   0  0  0  0  0  0  0  0  0  0  0  0
    3.4740   -9.0387   16.5022 C   0  0  0  0  0  0  0  0  0  0  0  0
    6.8384   -7.9290   17.5282 N   0  0  0  0  0  0  0  0  0  0  0  0
    9.4126   -5.9853   18.4899 C   0  0  0  0  0  0  0  0  0  0  0  0
    4.2064  -10.3242   18.3302 C   0  0  0  0  0  0  0  0  0  0  0  0
    9.6599   -4.1551   16.4796 N   0  0  0  0  0  0  0  0  0  0  0  0
    7.0644   -6.4612   15.7375 N   0  0  0  0  0  0  0  0  0  0  0  0
    5.3549   -9.6322   18.3190 C   0  0  0  0  0  0  0  0  0  0  0  0
   10.3704   -4.9638   18.6510 C   0  0  0  0  0  0  0  0  0  0  0  0
    5.5935   -8.6419   17.4234 C   0  0  0  0  0  0  0  0  0  0  0  0
   13.0726   -4.6648   23.3394 O   0  0  0  0  0  0  0  0  0  0  0  0
    8.5955   -6.0705   17.3996 C   0  0  0  0  0  0  0  0  0  0  0  0
    4.6223   -8.3832   16.5030 C   0  0  0  0  0  0  0  0  0  0  0  0
   12.4690   -5.2624   19.9024 C   0  0  0  0  0  0  0  0  0  0  0  0
    3.2548   -9.9919   17.4189 C   0  0  0  0  0  0  0  0  0  0  0  0
   12.4767   -4.7393   22.1790 C   0  0  0  0  0  0  0  0  0  0  0  0
    7.8593   -5.3772   15.3569 N   0  0  0  0  0  0  0  0  0  0  0  0
    7.4412   -6.9038   16.9283 C   0  0  0  0  0  0  0  0  0  0  0  0
  1 21  4  0
  1 23  4  0
  2  5  1  0
  2 13  4  0
  2 16  4  0
  3  6  4  0
  3  7  4  0
  4 13  4  0
  4 19  4  0
  4 24  4  0
  6 23  4  0
  7 16  1  0
  7 21  4  0
  8 18  1  0
  9 20  4  0
  9 22  4  0
 10 17  1  0
 10 25  1  0
 11 16  4  0
 11 19  4  0
 12 15  4  0
 12 22  4  0
 14 24  4  0
 14 25  4  0
 15 17  4  0
 17 20  4  0
 18 23  1  0
 19 25  4  0
M  END
$$$$

 Created by Python create_sdf_string function

 25 28  0  0  0  0  0  0  0  0999 V2000
   13.1533   -5.2399   21.0682 C   0  0  0  0  0  0  0  0  0  0  0  0
   10.4729   -4.0295   17.6135 C   0  0  0  0  0  0  0  0  0  0  0  0
   10.4789   -4.3641   20.9564 C   0  0  0  0  0  0  0  0  0  0  0  0
    8.7421   -5.1412   16.3650 C   0  0  0  0  0  0  0  0  0  0  0  0
   11.4353   -2.9204   17.8044 C   0  0  0  0  0  0  0  0  0  0  0  0
   11.1529   -4.3028   22.1277 C   0  0  0  0  0  0  0  0  0  0  0  0
   11.1290   -4.8502   19.8052 C   0  0  0  0  0  0  0  0  0  0  0  0
   12.4329   -4.2159   24.4224 C   0  0  0  0  0  0  0  0  0  0  0  0
    3.4740   -9.0387   16.5022 C   0  0  0  0  0  0  0  0  0  0  0  0
    6.8384   -7.9290   17.5282 N   0  0  0  0  0  0  0  0  0  0  0  0
    9.4126   -5.9853   18.4899 C   0  0  0  0  0  0  0  0  0  0  0  0
    4.2064  -10.3242   18.3302 C   0  0  0  0  0  0  0  0  0  0  0  0
    9.6599   -4.1551   16.4796 N   0  0  0  0  0  0  0  0  0  0  0  0
    7.0644   -6.4612   15.7375 N   0  0  0  0  0  0  0  0  0  0  0  0
    5.3549   -9.6322   18.3190 C   0  0  0  0  0  0  0  0  0  0  0  0
   10.3704   -4.9638   18.6510 C   0  0  0  0  0  0  0  0  0  0  0  0
    5.5935   -8.6419   17.4234 C   0  0  0  0  0  0  0  0  0  0  0  0
   13.0726   -4.6648   23.3394 O   0  0  0  0  0  0  0  0  0  0  0  0
    8.5955   -6.0705   17.3996 C   0  0  0  0  0  0  0  0  0  0  0  0
    4.6223   -8.3832   16.5030 C   0  0  0  0  0  0  0  0  0  0  0  0
   12.4690   -5.2624   19.9024 C   0  0  0  0  0  0  0  0  0  0  0  0
    3.2548   -9.9919   17.4189 C   0  0  0  0  0  0  0  0  0  0  0  0
   12.4767   -4.7393   22.1790 C   0  0  0  0  0  0  0  0  0  0  0  0
    7.8593   -5.3772   15.3569 N   0  0  0  0  0  0  0  0  0  0  0  0
    7.4412   -6.9038   16.9283 C   0  0  0  0  0  0  0  0  0  0  0  0
  1 21  4  0
  1 23  4  0
  2  5  1  0
  2 13  4  0
  2 16  4  0
  3  6  4  0
  3  7  4  0
  4 13  4  0
  4 19  4  0
  4 24  4  0
  6 23  4  0
  7 16  1  0
  7 21  4  0
  8 18  1  0
  9 20  4  0
  9 22  4  0
 10 17  1  0
 10 25  1  0
 11 16  4  0
 11 19  4  0
 12 15  4  0
 12 22  4  0
 14 24  4  0
 14 25  4  0
 15 17  4  0
 17 20  4  0
 18 23  1  0
 19 25  4  0
M  END
$$$$

 Created by Python create_sdf_string function

 25 28  0  0  0  0  0  0  0  0999 V2000
   13.1533   -5.2399   21.0682 C   0  0  0  0  0  0  0  0  0  0  0  0
   10.4729   -4.0295   17.6135 C   0  0  0  0  0  0  0  0  0  0  0  0
   10.4789   -4.3641   20.9564 C   0  0  0  0  0  0  0  0  0  0  0  0
    8.7421   -5.1412   16.3650 C   0  0  0  0  0  0  0  0  0  0  0  0
   11.4353   -2.9204   17.8044 C   0  0  0  0  0  0  0  0  0  0  0  0
   11.1529   -4.3028   22.1277 C   0  0  0  0  0  0  0  0  0  0  0  0
   11.1290   -4.8502   19.8052 C   0  0  0  0  0  0  0  0  0  0  0  0
   12.4329   -4.2159   24.4224 C   0  0  0  0  0  0  0  0  0  0  0  0
    3.4740   -9.0387   16.5022 C   0  0  0  0  0  0  0  0  0  0  0  0
    6.8384   -7.9290   17.5282 N   0  0  0  0  0  0  0  0  0  0  0  0
    9.4126   -5.9853   18.4899 C   0  0  0  0  0  0  0  0  0  0  0  0
    4.2064  -10.3242   18.3302 C   0  0  0  0  0  0  0  0  0  0  0  0
    9.6599   -4.1551   16.4796 N   0  0  0  0  0  0  0  0  0  0  0  0
    7.0644   -6.4612   15.7375 N   0  0  0  0  0  0  0  0  0  0  0  0
    5.3549   -9.6322   18.3190 C   0  0  0  0  0  0  0  0  0  0  0  0
   10.3704   -4.9638   18.6510 C   0  0  0  0  0  0  0  0  0  0  0  0
    5.5935   -8.6419   17.4234 C   0  0  0  0  0  0  0  0  0  0  0  0
   13.0726   -4.6648   23.3394 O   0  0  0  0  0  0  0  0  0  0  0  0
    8.5955   -6.0705   17.3996 C   0  0  0  0  0  0  0  0  0  0  0  0
    4.6223   -8.3832   16.5030 C   0  0  0  0  0  0  0  0  0  0  0  0
   12.4690   -5.2624   19.9024 C   0  0  0  0  0  0  0  0  0  0  0  0
    3.2548   -9.9919   17.4189 C   0  0  0  0  0  0  0  0  0  0  0  0
   12.4767   -4.7393   22.1790 C   0  0  0  0  0  0  0  0  0  0  0  0
    7.8593   -5.3772   15.3569 N   0  0  0  0  0  0  0  0  0  0  0  0
    7.4412   -6.9038   16.9283 C   0  0  0  0  0  0  0  0  0  0  0  0
  1 21  4  0
  1 23  4  0
  2  5  1  0
  2 13  4  0
  2 16  4  0
  3  6  4  0
  3  7  4  0
  4 13  4  0
  4 19  4  0
  4 24  4  0
  6 23  4  0
  7 16  1  0
  7 21  4  0
  8 18  1  0
  9 20  4  0
  9 22  4  0
 10 17  1  0
 10 25  1  0
 11 16  4  0
 11 19  4  0
 12 15  4  0
 12 22  4  0
 14 24  4  0
 14 25  4  0
 15 17  4  0
 17 20  4  0
 18 23  1  0
 19 25  4  0
M  END
$$$$

 Created by Python create_sdf_string function

 25 28  0  0  0  0  0  0  0  0999 V2000
   13.1533   -5.2399   21.0682 C   0  0  0  0  0  0  0  0  0  0  0  0
   10.4729   -4.0295   17.6135 C   0  0  0  0  0  0  0  0  0  0  0  0
   10.4789   -4.3641   20.9564 C   0  0  0  0  0  0  0  0  0  0  0  0
    8.7421   -5.1412   16.3650 C   0  0  0  0  0  0  0  0  0  0  0  0
   11.4353   -2.9204   17.8044 C   0  0  0  0  0  0  0  0  0  0  0  0
   11.1529   -4.3028   22.1277 C   0  0  0  0  0  0  0  0  0  0  0  0
   11.1290   -4.8502   19.8052 C   0  0  0  0  0  0  0  0  0  0  0  0
   12.4329   -4.2159   24.4224 C   0  0  0  0  0  0  0  0  0  0  0  0
    3.4740   -9.0387   16.5022 C   0  0  0  0  0  0  0  0  0  0  0  0
    6.8384   -7.9290   17.5282 N   0  0  0  0  0  0  0  0  0  0  0  0
    9.4126   -5.9853   18.4899 C   0  0  0  0  0  0  0  0  0  0  0  0
    4.2064  -10.3242   18.3302 C   0  0  0  0  0  0  0  0  0  0  0  0
    9.6599   -4.1551   16.4796 N   0  0  0  0  0  0  0  0  0  0  0  0
    7.0644   -6.4612   15.7375 N   0  0  0  0  0  0  0  0  0  0  0  0
    5.3549   -9.6322   18.3190 C   0  0  0  0  0  0  0  0  0  0  0  0
   10.3704   -4.9638   18.6510 C   0  0  0  0  0  0  0  0  0  0  0  0
    5.5935   -8.6419   17.4234 C   0  0  0  0  0  0  0  0  0  0  0  0
   13.0726   -4.6648   23.3394 O   0  0  0  0  0  0  0  0  0  0  0  0
    8.5955   -6.0705   17.3996 C   0  0  0  0  0  0  0  0  0  0  0  0
    4.6223   -8.3832   16.5030 C   0  0  0  0  0  0  0  0  0  0  0  0
   12.4690   -5.2624   19.9024 C   0  0  0  0  0  0  0  0  0  0  0  0
    3.2548   -9.9919   17.4189 C   0  0  0  0  0  0  0  0  0  0  0  0
   12.4767   -4.7393   22.1790 C   0  0  0  0  0  0  0  0  0  0  0  0
    7.8593   -5.3772   15.3569 N   0  0  0  0  0  0  0  0  0  0  0  0
    7.4412   -6.9038   16.9283 C   0  0  0  0  0  0  0  0  0  0  0  0
  1 21  4  0
  1 23  4  0
  2  5  1  0
  2 13  4  0
  2 16  4  0
  3  6  4  0
  3  7  4  0
  4 13  4  0
  4 19  4  0
  4 24  4  0
  6 23  4  0
  7 16  1  0
  7 21  4  0
  8 18  1  0
  9 20  4  0
  9 22  4  0
 10 17  1  0
 10 25  1  0
 11 16  4  0
 11 19  4  0
 12 15  4  0
 12 22  4  0
 14 24  4  0
 14 25  4  0
 15 17  4  0
 17 20  4  0
 18 23  1  0
 19 25  4  0
M  END
$$$$

 Created by Python create_sdf_string function

 25 28  0  0  0  0  0  0  0  0999 V2000
   13.1533   -5.2399   21.0682 C   0  0  0  0  0  0  0  0  0  0  0  0
   10.4729   -4.0295   17.6135 C   0  0  0  0  0  0  0  0  0  0  0  0
   10.4789   -4.3641   20.9564 C   0  0  0  0  0  0  0  0  0  0  0  0
    8.7421   -5.1412   16.3650 C   0  0  0  0  0  0  0  0  0  0  0  0
   11.4353   -2.9204   17.8044 C   0  0  0  0  0  0  0  0  0  0  0  0
   11.1529   -4.3028   22.1277 C   0  0  0  0  0  0  0  0  0  0  0  0
   11.1290   -4.8502   19.8052 C   0  0  0  0  0  0  0  0  0  0  0  0
   12.4329   -4.2159   24.4224 C   0  0  0  0  0  0  0  0  0  0  0  0
    3.4740   -9.0387   16.5022 C   0  0  0  0  0  0  0  0  0  0  0  0
    6.8384   -7.9290   17.5282 N   0  0  0  0  0  0  0  0  0  0  0  0
    9.4126   -5.9853   18.4899 C   0  0  0  0  0  0  0  0  0  0  0  0
    4.2064  -10.3242   18.3302 C   0  0  0  0  0  0  0  0  0  0  0  0
    9.6599   -4.1551   16.4796 N   0  0  0  0  0  0  0  0  0  0  0  0
    7.0644   -6.4612   15.7375 N   0  0  0  0  0  0  0  0  0  0  0  0
    5.3549   -9.6322   18.3190 C   0  0  0  0  0  0  0  0  0  0  0  0
   10.3704   -4.9638   18.6510 C   0  0  0  0  0  0  0  0  0  0  0  0
    5.5935   -8.6419   17.4234 C   0  0  0  0  0  0  0  0  0  0  0  0
   13.0726   -4.6648   23.3394 O   0  0  0  0  0  0  0  0  0  0  0  0
    8.5955   -6.0705   17.3996 C   0  0  0  0  0  0  0  0  0  0  0  0
    4.6223   -8.3832   16.5030 C   0  0  0  0  0  0  0  0  0  0  0  0
   12.4690   -5.2624   19.9024 C   0  0  0  0  0  0  0  0  0  0  0  0
    3.2548   -9.9919   17.4189 C   0  0  0  0  0  0  0  0  0  0  0  0
   12.4767   -4.7393   22.1790 C   0  0  0  0  0  0  0  0  0  0  0  0
    7.8593   -5.3772   15.3569 N   0  0  0  0  0  0  0  0  0  0  0  0
    7.4412   -6.9038   16.9283 C   0  0  0  0  0  0  0  0  0  0  0  0
  1 21  4  0
  1 23  4  0
  2  5  1  0
  2 13  4  0
  2 16  4  0
  3  6  4  0
  3  7  4  0
  4 13  4  0
  4 19  4  0
  4 24  4  0
  6 23  4  0
  7 16  1  0
  7 21  4  0
  8 18  1  0
  9 20  4  0
  9 22  4  0
 10 17  1  0
 10 25  1  0
 11 16  4  0
 11 19  4  0
 12 15  4  0
 12 22  4  0
 14 24  4  0
 14 25  4  0
 15 17  4  0
 17 20  4  0
 18 23  1  0
 19 25  4  0
M  END
$$$$

 Created by Python create_sdf_string function

 25 28  0  0  0  0  0  0  0  0999 V2000
   13.1533   -5.2399   21.0682 C   0  0  0  0  0  0  0  0  0  0  0  0
   10.4729   -4.0295   17.6135 C   0  0  0  0  0  0  0  0  0  0  0  0
   10.4789   -4.3641   20.9564 C   0  0  0  0  0  0  0  0  0  0  0  0
    8.7421   -5.1412   16.3650 C   0  0  0  0  0  0  0  0  0  0  0  0
   11.4353   -2.9204   17.8044 C   0  0  0  0  0  0  0  0  0  0  0  0
   11.1529   -4.3028   22.1277 C   0  0  0  0  0  0  0  0  0  0  0  0
   11.1290   -4.8502   19.8052 C   0  0  0  0  0  0  0  0  0  0  0  0
   12.4329   -4.2159   24.4224 C   0  0  0  0  0  0  0  0  0  0  0  0
    3.4740   -9.0387   16.5022 C   0  0  0  0  0  0  0  0  0  0  0  0
    6.8384   -7.9290   17.5282 N   0  0  0  0  0  0  0  0  0  0  0  0
    9.4126   -5.9853   18.4899 C   0  0  0  0  0  0  0  0  0  0  0  0
    4.2064  -10.3242   18.3302 C   0  0  0  0  0  0  0  0  0  0  0  0
    9.6599   -4.1551   16.4796 N   0  0  0  0  0  0  0  0  0  0  0  0
    7.0644   -6.4612   15.7375 N   0  0  0  0  0  0  0  0  0  0  0  0
    5.3549   -9.6322   18.3190 C   0  0  0  0  0  0  0  0  0  0  0  0
   10.3704   -4.9638   18.6510 C   0  0  0  0  0  0  0  0  0  0  0  0
    5.5935   -8.6419   17.4234 C   0  0  0  0  0  0  0  0  0  0  0  0
   13.0726   -4.6648   23.3394 O   0  0  0  0  0  0  0  0  0  0  0  0
    8.5955   -6.0705   17.3996 C   0  0  0  0  0  0  0  0  0  0  0  0
    4.6223   -8.3832   16.5030 C   0  0  0  0  0  0  0  0  0  0  0  0
   12.4690   -5.2624   19.9024 C   0  0  0  0  0  0  0  0  0  0  0  0
    3.2548   -9.9919   17.4189 C   0  0  0  0  0  0  0  0  0  0  0  0
   12.4767   -4.7393   22.1790 C   0  0  0  0  0  0  0  0  0  0  0  0
    7.8593   -5.3772   15.3569 N   0  0  0  0  0  0  0  0  0  0  0  0
    7.4412   -6.9038   16.9283 C   0  0  0  0  0  0  0  0  0  0  0  0
  1 21  4  0
  1 23  4  0
  2  5  1  0
  2 13  4  0
  2 16  4  0
  3  6  4  0
  3  7  4  0
  4 13  4  0
  4 19  4  0
  4 24  4  0
  6 23  4  0
  7 16  1  0
  7 21  4  0
  8 18  1  0
  9 20  4  0
  9 22  4  0
 10 17  1  0
 10 25  1  0
 11 16  4  0
 11 19  4  0
 12 15  4  0
 12 22  4  0
 14 24  4  0
 14 25  4  0
 15 17  4  0
 17 20  4  0
 18 23  1  0
 19 25  4  0
M  END
$$$$

 Created by Python create_sdf_string function

 25 28  0  0  0  0  0  0  0  0999 V2000
   13.1533   -5.2399   21.0682 C   0  0  0  0  0  0  0  0  0  0  0  0
   10.4729   -4.0295   17.6135 C   0  0  0  0  0  0  0  0  0  0  0  0
   10.4789   -4.3641   20.9564 C   0  0  0  0  0  0  0  0  0  0  0  0
    8.7421   -5.1412   16.3650 C   0  0  0  0  0  0  0  0  0  0  0  0
   11.4353   -2.9204   17.8044 C   0  0  0  0  0  0  0  0  0  0  0  0
   11.1529   -4.3028   22.1277 C   0  0  0  0  0  0  0  0  0  0  0  0
   11.1290   -4.8502   19.8052 C   0  0  0  0  0  0  0  0  0  0  0  0
   12.4329   -4.2159   24.4224 C   0  0  0  0  0  0  0  0  0  0  0  0
    3.4740   -9.0387   16.5022 C   0  0  0  0  0  0  0  0  0  0  0  0
    6.8384   -7.9290   17.5282 N   0  0  0  0  0  0  0  0  0  0  0  0
    9.4126   -5.9853   18.4899 C   0  0  0  0  0  0  0  0  0  0  0  0
    4.2064  -10.3242   18.3302 C   0  0  0  0  0  0  0  0  0  0  0  0
    9.6599   -4.1551   16.4796 N   0  0  0  0  0  0  0  0  0  0  0  0
    7.0644   -6.4612   15.7375 N   0  0  0  0  0  0  0  0  0  0  0  0
    5.3549   -9.6322   18.3190 C   0  0  0  0  0  0  0  0  0  0  0  0
   10.3704   -4.9638   18.6510 C   0  0  0  0  0  0  0  0  0  0  0  0
    5.5935   -8.6419   17.4234 C   0  0  0  0  0  0  0  0  0  0  0  0
   13.0726   -4.6648   23.3394 O   0  0  0  0  0  0  0  0  0  0  0  0
    8.5955   -6.0705   17.3996 C   0  0  0  0  0  0  0  0  0  0  0  0
    4.6223   -8.3832   16.5030 C   0  0  0  0  0  0  0  0  0  0  0  0
   12.4690   -5.2624   19.9024 C   0  0  0  0  0  0  0  0  0  0  0  0
    3.2548   -9.9919   17.4189 C   0  0  0  0  0  0  0  0  0  0  0  0
   12.4767   -4.7393   22.1790 C   0  0  0  0  0  0  0  0  0  0  0  0
    7.8593   -5.3772   15.3569 N   0  0  0  0  0  0  0  0  0  0  0  0
    7.4412   -6.9038   16.9283 C   0  0  0  0  0  0  0  0  0  0  0  0
  1 21  4  0
  1 23  4  0
  2  5  1  0
  2 13  4  0
  2 16  4  0
  3  6  4  0
  3  7  4  0
  4 13  4  0
  4 19  4  0
  4 24  4  0
  6 23  4  0
  7 16  1  0
  7 21  4  0
  8 18  1  0
  9 20  4  0
  9 22  4  0
 10 17  1  0
 10 25  1  0
 11 16  4  0
 11 19  4  0
 12 15  4  0
 12 22  4  0
 14 24  4  0
 14 25  4  0
 15 17  4  0
 17 20  4  0
 18 23  1  0
 19 25  4  0
M  END
$$$$

 Created by Python create_sdf_string function

 25 28  0  0  0  0  0  0  0  0999 V2000
   13.1533   -5.2399   21.0682 C   0  0  0  0  0  0  0  0  0  0  0  0
   10.4729   -4.0295   17.6135 C   0  0  0  0  0  0  0  0  0  0  0  0
   10.4789   -4.3641   20.9564 C   0  0  0  0  0  0  0  0  0  0  0  0
    8.7421   -5.1412   16.3650 C   0  0  0  0  0  0  0  0  0  0  0  0
   11.4353   -2.9204   17.8044 C   0  0  0  0  0  0  0  0  0  0  0  0
   11.1529   -4.3028   22.1277 C   0  0  0  0  0  0  0  0  0  0  0  0
   11.1290   -4.8502   19.8052 C   0  0  0  0  0  0  0  0  0  0  0  0
   12.4329   -4.2159   24.4224 C   0  0  0  0  0  0  0  0  0  0  0  0
    3.4740   -9.0387   16.5022 C   0  0  0  0  0  0  0  0  0  0  0  0
    6.8384   -7.9290   17.5282 N   0  0  0  0  0  0  0  0  0  0  0  0
    9.4126   -5.9853   18.4899 C   0  0  0  0  0  0  0  0  0  0  0  0
    4.2064  -10.3242   18.3302 C   0  0  0  0  0  0  0  0  0  0  0  0
    9.6599   -4.1551   16.4796 N   0  0  0  0  0  0  0  0  0  0  0  0
    7.0644   -6.4612   15.7375 N   0  0  0  0  0  0  0  0  0  0  0  0
    5.3549   -9.6322   18.3190 C   0  0  0  0  0  0  0  0  0  0  0  0
   10.3704   -4.9638   18.6510 C   0  0  0  0  0  0  0  0  0  0  0  0
    5.5935   -8.6419   17.4234 C   0  0  0  0  0  0  0  0  0  0  0  0
   13.0726   -4.6648   23.3394 O   0  0  0  0  0  0  0  0  0  0  0  0
    8.5955   -6.0705   17.3996 C   0  0  0  0  0  0  0  0  0  0  0  0
    4.6223   -8.3832   16.5030 C   0  0  0  0  0  0  0  0  0  0  0  0
   12.4690   -5.2624   19.9024 C   0  0  0  0  0  0  0  0  0  0  0  0
    3.2548   -9.9919   17.4189 C   0  0  0  0  0  0  0  0  0  0  0  0
   12.4767   -4.7393   22.1790 C   0  0  0  0  0  0  0  0  0  0  0  0
    7.8593   -5.3772   15.3569 N   0  0  0  0  0  0  0  0  0  0  0  0
    7.4412   -6.9038   16.9283 C   0  0  0  0  0  0  0  0  0  0  0  0
  1 21  4  0
  1 23  4  0
  2  5  1  0
  2 13  4  0
  2 16  4  0
  3  6  4  0
  3  7  4  0
  4 13  4  0
  4 19  4  0
  4 24  4  0
  6 23  4  0
  7 16  1  0
  7 21  4  0
  8 18  1  0
  9 20  4  0
  9 22  4  0
 10 17  1  0
 10 25  1  0
 11 16  4  0
 11 19  4  0
 12 15  4  0
 12 22  4  0
 14 24  4  0
 14 25  4  0
 15 17  4  0
 17 20  4  0
 18 23  1  0
 19 25  4  0
M  END
$$$$

 Created by Python create_sdf_string function

 25 28  0  0  0  0  0  0  0  0999 V2000
   13.1533   -5.2399   21.0682 C   0  0  0  0  0  0  0  0  0  0  0  0
   10.4729   -4.0295   17.6135 C   0  0  0  0  0  0  0  0  0  0  0  0
   10.4789   -4.3641   20.9564 C   0  0  0  0  0  0  0  0  0  0  0  0
    8.7421   -5.1412   16.3650 C   0  0  0  0  0  0  0  0  0  0  0  0
   11.4353   -2.9204   17.8044 C   0  0  0  0  0  0  0  0  0  0  0  0
   11.1529   -4.3028   22.1277 C   0  0  0  0  0  0  0  0  0  0  0  0
   11.1290   -4.8502   19.8052 C   0  0  0  0  0  0  0  0  0  0  0  0
   12.4329   -4.2159   24.4224 C   0  0  0  0  0  0  0  0  0  0  0  0
    3.4740   -9.0387   16.5022 C   0  0  0  0  0  0  0  0  0  0  0  0
    6.8384   -7.9290   17.5282 N   0  0  0  0  0  0  0  0  0  0  0  0
    9.4126   -5.9853   18.4899 C   0  0  0  0  0  0  0  0  0  0  0  0
    4.2064  -10.3242   18.3302 C   0  0  0  0  0  0  0  0  0  0  0  0
    9.6599   -4.1551   16.4796 N   0  0  0  0  0  0  0  0  0  0  0  0
    7.0644   -6.4612   15.7375 N   0  0  0  0  0  0  0  0  0  0  0  0
    5.3549   -9.6322   18.3190 C   0  0  0  0  0  0  0  0  0  0  0  0
   10.3704   -4.9638   18.6510 C   0  0  0  0  0  0  0  0  0  0  0  0
    5.5935   -8.6419   17.4234 C   0  0  0  0  0  0  0  0  0  0  0  0
   13.0726   -4.6648   23.3394 O   0  0  0  0  0  0  0  0  0  0  0  0
    8.5955   -6.0705   17.3996 C   0  0  0  0  0  0  0  0  0  0  0  0
    4.6223   -8.3832   16.5030 C   0  0  0  0  0  0  0  0  0  0  0  0
   12.4690   -5.2624   19.9024 C   0  0  0  0  0  0  0  0  0  0  0  0
    3.2548   -9.9919   17.4189 C   0  0  0  0  0  0  0  0  0  0  0  0
   12.4767   -4.7393   22.1790 C   0  0  0  0  0  0  0  0  0  0  0  0
    7.8593   -5.3772   15.3569 N   0  0  0  0  0  0  0  0  0  0  0  0
    7.4412   -6.9038   16.9283 C   0  0  0  0  0  0  0  0  0  0  0  0
  1 21  4  0
  1 23  4  0
  2  5  1  0
  2 13  4  0
  2 16  4  0
  3  6  4  0
  3  7  4  0
  4 13  4  0
  4 19  4  0
  4 24  4  0
  6 23  4  0
  7 16  1  0
  7 21  4  0
  8 18  1  0
  9 20  4  0
  9 22  4  0
 10 17  1  0
 10 25  1  0
 11 16  4  0
 11 19  4  0
 12 15  4  0
 12 22  4  0
 14 24  4  0
 14 25  4  0
 15 17  4  0
 17 20  4  0
 18 23  1  0
 19 25  4  0
M  END
$$$$

 Created by Python create_sdf_string function

 25 28  0  0  0  0  0  0  0  0999 V2000
   13.1533   -5.2399   21.0682 C   0  0  0  0  0  0  0  0  0  0  0  0
   10.4729   -4.0295   17.6135 C   0  0  0  0  0  0  0  0  0  0  0  0
   10.4789   -4.3641   20.9564 C   0  0  0  0  0  0  0  0  0  0  0  0
    8.7421   -5.1412   16.3650 C   0  0  0  0  0  0  0  0  0  0  0  0
   11.4353   -2.9204   17.8044 C   0  0  0  0  0  0  0  0  0  0  0  0
   11.1529   -4.3028   22.1277 C   0  0  0  0  0  0  0  0  0  0  0  0
   11.1290   -4.8502   19.8052 C   0  0  0  0  0  0  0  0  0  0  0  0
   12.4329   -4.2159   24.4224 C   0  0  0  0  0  0  0  0  0  0  0  0
    3.4740   -9.0387   16.5022 C   0  0  0  0  0  0  0  0  0  0  0  0
    6.8384   -7.9290   17.5282 N   0  0  0  0  0  0  0  0  0  0  0  0
    9.4126   -5.9853   18.4899 C   0  0  0  0  0  0  0  0  0  0  0  0
    4.2064  -10.3242   18.3302 C   0  0  0  0  0  0  0  0  0  0  0  0
    9.6599   -4.1551   16.4796 N   0  0  0  0  0  0  0  0  0  0  0  0
    7.0644   -6.4612   15.7375 N   0  0  0  0  0  0  0  0  0  0  0  0
    5.3549   -9.6322   18.3190 C   0  0  0  0  0  0  0  0  0  0  0  0
   10.3704   -4.9638   18.6510 C   0  0  0  0  0  0  0  0  0  0  0  0
    5.5935   -8.6419   17.4234 C   0  0  0  0  0  0  0  0  0  0  0  0
   13.0726   -4.6648   23.3394 O   0  0  0  0  0  0  0  0  0  0  0  0
    8.5955   -6.0705   17.3996 C   0  0  0  0  0  0  0  0  0  0  0  0
    4.6223   -8.3832   16.5030 C   0  0  0  0  0  0  0  0  0  0  0  0
   12.4690   -5.2624   19.9024 C   0  0  0  0  0  0  0  0  0  0  0  0
    3.2548   -9.9919   17.4189 C   0  0  0  0  0  0  0  0  0  0  0  0
   12.4767   -4.7393   22.1790 C   0  0  0  0  0  0  0  0  0  0  0  0
    7.8593   -5.3772   15.3569 N   0  0  0  0  0  0  0  0  0  0  0  0
    7.4412   -6.9038   16.9283 C   0  0  0  0  0  0  0  0  0  0  0  0
  1 21  4  0
  1 23  4  0
  2  5  1  0
  2 13  4  0
  2 16  4  0
  3  6  4  0
  3  7  4  0
  4 13  4  0
  4 19  4  0
  4 24  4  0
  6 23  4  0
  7 16  1  0
  7 21  4  0
  8 18  1  0
  9 20  4  0
  9 22  4  0
 10 17  1  0
 10 25  1  0
 11 16  4  0
 11 19  4  0
 12 15  4  0
 12 22  4  0
 14 24  4  0
 14 25  4  0
 15 17  4  0
 17 20  4  0
 18 23  1  0
 19 25  4  0
M  END
$$$$

 Created by Python create_sdf_string function

 25 28  0  0  0  0  0  0  0  0999 V2000
   13.1533   -5.2399   21.0682 C   0  0  0  0  0  0  0  0  0  0  0  0
   10.4729   -4.0295   17.6135 C   0  0  0  0  0  0  0  0  0  0  0  0
   10.4789   -4.3641   20.9564 C   0  0  0  0  0  0  0  0  0  0  0  0
    8.7421   -5.1412   16.3650 C   0  0  0  0  0  0  0  0  0  0  0  0
   11.4353   -2.9204   17.8044 C   0  0  0  0  0  0  0  0  0  0  0  0
   11.1529   -4.3028   22.1277 C   0  0  0  0  0  0  0  0  0  0  0  0
   11.1290   -4.8502   19.8052 C   0  0  0  0  0  0  0  0  0  0  0  0
   12.4329   -4.2159   24.4224 C   0  0  0  0  0  0  0  0  0  0  0  0
    3.4740   -9.0387   16.5022 C   0  0  0  0  0  0  0  0  0  0  0  0
    6.8384   -7.9290   17.5282 N   0  0  0  0  0  0  0  0  0  0  0  0
    9.4126   -5.9853   18.4899 C   0  0  0  0  0  0  0  0  0  0  0  0
    4.2064  -10.3242   18.3302 C   0  0  0  0  0  0  0  0  0  0  0  0
    9.6599   -4.1551   16.4796 N   0  0  0  0  0  0  0  0  0  0  0  0
    7.0644   -6.4612   15.7375 N   0  0  0  0  0  0  0  0  0  0  0  0
    5.3549   -9.6322   18.3190 C   0  0  0  0  0  0  0  0  0  0  0  0
   10.3704   -4.9638   18.6510 C   0  0  0  0  0  0  0  0  0  0  0  0
    5.5935   -8.6419   17.4234 C   0  0  0  0  0  0  0  0  0  0  0  0
   13.0726   -4.6648   23.3394 O   0  0  0  0  0  0  0  0  0  0  0  0
    8.5955   -6.0705   17.3996 C   0  0  0  0  0  0  0  0  0  0  0  0
    4.6223   -8.3832   16.5030 C   0  0  0  0  0  0  0  0  0  0  0  0
   12.4690   -5.2624   19.9024 C   0  0  0  0  0  0  0  0  0  0  0  0
    3.2548   -9.9919   17.4189 C   0  0  0  0  0  0  0  0  0  0  0  0
   12.4767   -4.7393   22.1790 C   0  0  0  0  0  0  0  0  0  0  0  0
    7.8593   -5.3772   15.3569 N   0  0  0  0  0  0  0  0  0  0  0  0
    7.4412   -6.9038   16.9283 C   0  0  0  0  0  0  0  0  0  0  0  0
  1 21  4  0
  1 23  4  0
  2  5  1  0
  2 13  4  0
  2 16  4  0
  3  6  4  0
  3  7  4  0
  4 13  4  0
  4 19  4  0
  4 24  4  0
  6 23  4  0
  7 16  1  0
  7 21  4  0
  8 18  1  0
  9 20  4  0
  9 22  4  0
 10 17  1  0
 10 25  1  0
 11 16  4  0
 11 19  4  0
 12 15  4  0
 12 22  4  0
 14 24  4  0
 14 25  4  0
 15 17  4  0
 17 20  4  0
 18 23  1  0
 19 25  4  0
M  END
$$$$

 Created by Python create_sdf_string function

 25 28  0  0  0  0  0  0  0  0999 V2000
   13.1533   -5.2399   21.0682 C   0  0  0  0  0  0  0  0  0  0  0  0
   10.4729   -4.0295   17.6135 C   0  0  0  0  0  0  0  0  0  0  0  0
   10.4789   -4.3641   20.9564 C   0  0  0  0  0  0  0  0  0  0  0  0
    8.7421   -5.1412   16.3650 C   0  0  0  0  0  0  0  0  0  0  0  0
   11.4353   -2.9204   17.8044 C   0  0  0  0  0  0  0  0  0  0  0  0
   11.1529   -4.3028   22.1277 C   0  0  0  0  0  0  0  0  0  0  0  0
   11.1290   -4.8502   19.8052 C   0  0  0  0  0  0  0  0  0  0  0  0
   12.4329   -4.2159   24.4224 C   0  0  0  0  0  0  0  0  0  0  0  0
    3.4740   -9.0387   16.5022 C   0  0  0  0  0  0  0  0  0  0  0  0
    6.8384   -7.9290   17.5282 N   0  0  0  0  0  0  0  0  0  0  0  0
    9.4126   -5.9853   18.4899 C   0  0  0  0  0  0  0  0  0  0  0  0
    4.2064  -10.3242   18.3302 C   0  0  0  0  0  0  0  0  0  0  0  0
    9.6599   -4.1551   16.4796 N   0  0  0  0  0  0  0  0  0  0  0  0
    7.0644   -6.4612   15.7375 N   0  0  0  0  0  0  0  0  0  0  0  0
    5.3549   -9.6322   18.3190 C   0  0  0  0  0  0  0  0  0  0  0  0
   10.3704   -4.9638   18.6510 C   0  0  0  0  0  0  0  0  0  0  0  0
    5.5935   -8.6419   17.4234 C   0  0  0  0  0  0  0  0  0  0  0  0
   13.0726   -4.6648   23.3394 O   0  0  0  0  0  0  0  0  0  0  0  0
    8.5955   -6.0705   17.3996 C   0  0  0  0  0  0  0  0  0  0  0  0
    4.6223   -8.3832   16.5030 C   0  0  0  0  0  0  0  0  0  0  0  0
   12.4690   -5.2624   19.9024 C   0  0  0  0  0  0  0  0  0  0  0  0
    3.2548   -9.9919   17.4189 C   0  0  0  0  0  0  0  0  0  0  0  0
   12.4767   -4.7393   22.1790 C   0  0  0  0  0  0  0  0  0  0  0  0
    7.8593   -5.3772   15.3569 N   0  0  0  0  0  0  0  0  0  0  0  0
    7.4412   -6.9038   16.9283 C   0  0  0  0  0  0  0  0  0  0  0  0
  1 21  4  0
  1 23  4  0
  2  5  1  0
  2 13  4  0
  2 16  4  0
  3  6  4  0
  3  7  4  0
  4 13  4  0
  4 19  4  0
  4 24  4  0
  6 23  4  0
  7 16  1  0
  7 21  4  0
  8 18  1  0
  9 20  4  0
  9 22  4  0
 10 17  1  0
 10 25  1  0
 11 16  4  0
 11 19  4  0
 12 15  4  0
 12 22  4  0
 14 24  4  0
 14 25  4  0
 15 17  4  0
 17 20  4  0
 18 23  1  0
 19 25  4  0
M  END
$$$$

 Created by Python create_sdf_string function

 25 28  0  0  0  0  0  0  0  0999 V2000
   13.1533   -5.2399   21.0682 C   0  0  0  0  0  0  0  0  0  0  0  0
   10.4729   -4.0295   17.6135 C   0  0  0  0  0  0  0  0  0  0  0  0
   10.4789   -4.3641   20.9564 C   0  0  0  0  0  0  0  0  0  0  0  0
    8.7421   -5.1412   16.3650 C   0  0  0  0  0  0  0  0  0  0  0  0
   11.4353   -2.9204   17.8044 C   0  0  0  0  0  0  0  0  0  0  0  0
   11.1529   -4.3028   22.1277 C   0  0  0  0  0  0  0  0  0  0  0  0
   11.1290   -4.8502   19.8052 C   0  0  0  0  0  0  0  0  0  0  0  0
   12.4329   -4.2159   24.4224 C   0  0  0  0  0  0  0  0  0  0  0  0
    3.4740   -9.0387   16.5022 C   0  0  0  0  0  0  0  0  0  0  0  0
    6.8384   -7.9290   17.5282 N   0  0  0  0  0  0  0  0  0  0  0  0
    9.4126   -5.9853   18.4899 C   0  0  0  0  0  0  0  0  0  0  0  0
    4.2064  -10.3242   18.3302 C   0  0  0  0  0  0  0  0  0  0  0  0
    9.6599   -4.1551   16.4796 N   0  0  0  0  0  0  0  0  0  0  0  0
    7.0644   -6.4612   15.7375 N   0  0  0  0  0  0  0  0  0  0  0  0
    5.3549   -9.6322   18.3190 C   0  0  0  0  0  0  0  0  0  0  0  0
   10.3704   -4.9638   18.6510 C   0  0  0  0  0  0  0  0  0  0  0  0
    5.5935   -8.6419   17.4234 C   0  0  0  0  0  0  0  0  0  0  0  0
   13.0726   -4.6648   23.3394 O   0  0  0  0  0  0  0  0  0  0  0  0
    8.5955   -6.0705   17.3996 C   0  0  0  0  0  0  0  0  0  0  0  0
    4.6223   -8.3832   16.5030 C   0  0  0  0  0  0  0  0  0  0  0  0
   12.4690   -5.2624   19.9024 C   0  0  0  0  0  0  0  0  0  0  0  0
    3.2548   -9.9919   17.4189 C   0  0  0  0  0  0  0  0  0  0  0  0
   12.4767   -4.7393   22.1790 C   0  0  0  0  0  0  0  0  0  0  0  0
    7.8593   -5.3772   15.3569 N   0  0  0  0  0  0  0  0  0  0  0  0
    7.4412   -6.9038   16.9283 C   0  0  0  0  0  0  0  0  0  0  0  0
  1 21  4  0
  1 23  4  0
  2  5  1  0
  2 13  4  0
  2 16  4  0
  3  6  4  0
  3  7  4  0
  4 13  4  0
  4 19  4  0
  4 24  4  0
  6 23  4  0
  7 16  1  0
  7 21  4  0
  8 18  1  0
  9 20  4  0
  9 22  4  0
 10 17  1  0
 10 25  1  0
 11 16  4  0
 11 19  4  0
 12 15  4  0
 12 22  4  0
 14 24  4  0
 14 25  4  0
 15 17  4  0
 17 20  4  0
 18 23  1  0
 19 25  4  0
M  END
$$$$

 Created by Python create_sdf_string function

 25 28  0  0  0  0  0  0  0  0999 V2000
   13.1533   -5.2399   21.0682 C   0  0  0  0  0  0  0  0  0  0  0  0
   10.4729   -4.0295   17.6135 C   0  0  0  0  0  0  0  0  0  0  0  0
   10.4789   -4.3641   20.9564 C   0  0  0  0  0  0  0  0  0  0  0  0
    8.7421   -5.1412   16.3650 C   0  0  0  0  0  0  0  0  0  0  0  0
   11.4353   -2.9204   17.8044 C   0  0  0  0  0  0  0  0  0  0  0  0
   11.1529   -4.3028   22.1277 C   0  0  0  0  0  0  0  0  0  0  0  0
   11.1290   -4.8502   19.8052 C   0  0  0  0  0  0  0  0  0  0  0  0
   12.4329   -4.2159   24.4224 C   0  0  0  0  0  0  0  0  0  0  0  0
    3.4740   -9.0387   16.5022 C   0  0  0  0  0  0  0  0  0  0  0  0
    6.8384   -7.9290   17.5282 N   0  0  0  0  0  0  0  0  0  0  0  0
    9.4126   -5.9853   18.4899 C   0  0  0  0  0  0  0  0  0  0  0  0
    4.2064  -10.3242   18.3302 C   0  0  0  0  0  0  0  0  0  0  0  0
    9.6599   -4.1551   16.4796 N   0  0  0  0  0  0  0  0  0  0  0  0
    7.0644   -6.4612   15.7375 N   0  0  0  0  0  0  0  0  0  0  0  0
    5.3549   -9.6322   18.3190 C   0  0  0  0  0  0  0  0  0  0  0  0
   10.3704   -4.9638   18.6510 C   0  0  0  0  0  0  0  0  0  0  0  0
    5.5935   -8.6419   17.4234 C   0  0  0  0  0  0  0  0  0  0  0  0
   13.0726   -4.6648   23.3394 O   0  0  0  0  0  0  0  0  0  0  0  0
    8.5955   -6.0705   17.3996 C   0  0  0  0  0  0  0  0  0  0  0  0
    4.6223   -8.3832   16.5030 C   0  0  0  0  0  0  0  0  0  0  0  0
   12.4690   -5.2624   19.9024 C   0  0  0  0  0  0  0  0  0  0  0  0
    3.2548   -9.9919   17.4189 C   0  0  0  0  0  0  0  0  0  0  0  0
   12.4767   -4.7393   22.1790 C   0  0  0  0  0  0  0  0  0  0  0  0
    7.8593   -5.3772   15.3569 N   0  0  0  0  0  0  0  0  0  0  0  0
    7.4412   -6.9038   16.9283 C   0  0  0  0  0  0  0  0  0  0  0  0
  1 21  4  0
  1 23  4  0
  2  5  1  0
  2 13  4  0
  2 16  4  0
  3  6  4  0
  3  7  4  0
  4 13  4  0
  4 19  4  0
  4 24  4  0
  6 23  4  0
  7 16  1  0
  7 21  4  0
  8 18  1  0
  9 20  4  0
  9 22  4  0
 10 17  1  0
 10 25  1  0
 11 16  4  0
 11 19  4  0
 12 15  4  0
 12 22  4  0
 14 24  4  0
 14 25  4  0
 15 17  4  0
 17 20  4  0
 18 23  1  0
 19 25  4  0
M  END
$$$$

 Created by Python create_sdf_string function

 25 28  0  0  0  0  0  0  0  0999 V2000
   13.1533   -5.2399   21.0682 C   0  0  0  0  0  0  0  0  0  0  0  0
   10.4729   -4.0295   17.6135 C   0  0  0  0  0  0  0  0  0  0  0  0
   10.4789   -4.3641   20.9564 C   0  0  0  0  0  0  0  0  0  0  0  0
    8.7421   -5.1412   16.3650 C   0  0  0  0  0  0  0  0  0  0  0  0
   11.4353   -2.9204   17.8044 C   0  0  0  0  0  0  0  0  0  0  0  0
   11.1529   -4.3028   22.1277 C   0  0  0  0  0  0  0  0  0  0  0  0
   11.1290   -4.8502   19.8052 C   0  0  0  0  0  0  0  0  0  0  0  0
   12.4329   -4.2159   24.4224 C   0  0  0  0  0  0  0  0  0  0  0  0
    3.4740   -9.0387   16.5022 C   0  0  0  0  0  0  0  0  0  0  0  0
    6.8384   -7.9290   17.5282 N   0  0  0  0  0  0  0  0  0  0  0  0
    9.4126   -5.9853   18.4899 C   0  0  0  0  0  0  0  0  0  0  0  0
    4.2064  -10.3242   18.3302 C   0  0  0  0  0  0  0  0  0  0  0  0
    9.6599   -4.1551   16.4796 N   0  0  0  0  0  0  0  0  0  0  0  0
    7.0644   -6.4612   15.7375 N   0  0  0  0  0  0  0  0  0  0  0  0
    5.3549   -9.6322   18.3190 C   0  0  0  0  0  0  0  0  0  0  0  0
   10.3704   -4.9638   18.6510 C   0  0  0  0  0  0  0  0  0  0  0  0
    5.5935   -8.6419   17.4234 C   0  0  0  0  0  0  0  0  0  0  0  0
   13.0726   -4.6648   23.3394 O   0  0  0  0  0  0  0  0  0  0  0  0
    8.5955   -6.0705   17.3996 C   0  0  0  0  0  0  0  0  0  0  0  0
    4.6223   -8.3832   16.5030 C   0  0  0  0  0  0  0  0  0  0  0  0
   12.4690   -5.2624   19.9024 C   0  0  0  0  0  0  0  0  0  0  0  0
    3.2548   -9.9919   17.4189 C   0  0  0  0  0  0  0  0  0  0  0  0
   12.4767   -4.7393   22.1790 C   0  0  0  0  0  0  0  0  0  0  0  0
    7.8593   -5.3772   15.3569 N   0  0  0  0  0  0  0  0  0  0  0  0
    7.4412   -6.9038   16.9283 C   0  0  0  0  0  0  0  0  0  0  0  0
  1 21  4  0
  1 23  4  0
  2  5  1  0
  2 13  4  0
  2 16  4  0
  3  6  4  0
  3  7  4  0
  4 13  4  0
  4 19  4  0
  4 24  4  0
  6 23  4  0
  7 16  1  0
  7 21  4  0
  8 18  1  0
  9 20  4  0
  9 22  4  0
 10 17  1  0
 10 25  1  0
 11 16  4  0
 11 19  4  0
 12 15  4  0
 12 22  4  0
 14 24  4  0
 14 25  4  0
 15 17  4  0
 17 20  4  0
 18 23  1  0
 19 25  4  0
M  END
$$$$

 Created by Python create_sdf_string function

 25 28  0  0  0  0  0  0  0  0999 V2000
   13.1533   -5.2399   21.0682 C   0  0  0  0  0  0  0  0  0  0  0  0
   10.4729   -4.0295   17.6135 C   0  0  0  0  0  0  0  0  0  0  0  0
   10.4789   -4.3641   20.9564 C   0  0  0  0  0  0  0  0  0  0  0  0
    8.7421   -5.1412   16.3650 C   0  0  0  0  0  0  0  0  0  0  0  0
   11.4353   -2.9204   17.8044 C   0  0  0  0  0  0  0  0  0  0  0  0
   11.1529   -4.3028   22.1277 C   0  0  0  0  0  0  0  0  0  0  0  0
   11.1290   -4.8502   19.8052 C   0  0  0  0  0  0  0  0  0  0  0  0
   12.4329   -4.2159   24.4224 C   0  0  0  0  0  0  0  0  0  0  0  0
    3.4740   -9.0387   16.5022 C   0  0  0  0  0  0  0  0  0  0  0  0
    6.8384   -7.9290   17.5282 N   0  0  0  0  0  0  0  0  0  0  0  0
    9.4126   -5.9853   18.4899 C   0  0  0  0  0  0  0  0  0  0  0  0
    4.2064  -10.3242   18.3302 C   0  0  0  0  0  0  0  0  0  0  0  0
    9.6599   -4.1551   16.4796 N   0  0  0  0  0  0  0  0  0  0  0  0
    7.0644   -6.4612   15.7375 N   0  0  0  0  0  0  0  0  0  0  0  0
    5.3549   -9.6322   18.3190 C   0  0  0  0  0  0  0  0  0  0  0  0
   10.3704   -4.9638   18.6510 C   0  0  0  0  0  0  0  0  0  0  0  0
    5.5935   -8.6419   17.4234 C   0  0  0  0  0  0  0  0  0  0  0  0
   13.0726   -4.6648   23.3394 O   0  0  0  0  0  0  0  0  0  0  0  0
    8.5955   -6.0705   17.3996 C   0  0  0  0  0  0  0  0  0  0  0  0
    4.6223   -8.3832   16.5030 C   0  0  0  0  0  0  0  0  0  0  0  0
   12.4690   -5.2624   19.9024 C   0  0  0  0  0  0  0  0  0  0  0  0
    3.2548   -9.9919   17.4189 C   0  0  0  0  0  0  0  0  0  0  0  0
   12.4767   -4.7393   22.1790 C   0  0  0  0  0  0  0  0  0  0  0  0
    7.8593   -5.3772   15.3569 N   0  0  0  0  0  0  0  0  0  0  0  0
    7.4412   -6.9038   16.9283 C   0  0  0  0  0  0  0  0  0  0  0  0
  1 21  4  0
  1 23  4  0
  2  5  1  0
  2 13  4  0
  2 16  4  0
  3  6  4  0
  3  7  4  0
  4 13  4  0
  4 19  4  0
  4 24  4  0
  6 23  4  0
  7 16  1  0
  7 21  4  0
  8 18  1  0
  9 20  4  0
  9 22  4  0
 10 17  1  0
 10 25  1  0
 11 16  4  0
 11 19  4  0
 12 15  4  0
 12 22  4  0
 14 24  4  0
 14 25  4  0
 15 17  4  0
 17 20  4  0
 18 23  1  0
 19 25  4  0
M  END
$$$$

 Created by Python create_sdf_string function

 25 28  0  0  0  0  0  0  0  0999 V2000
   13.1533   -5.2399   21.0682 C   0  0  0  0  0  0  0  0  0  0  0  0
   10.4729   -4.0295   17.6135 C   0  0  0  0  0  0  0  0  0  0  0  0
   10.4789   -4.3641   20.9564 C   0  0  0  0  0  0  0  0  0  0  0  0
    8.7421   -5.1412   16.3650 C   0  0  0  0  0  0  0  0  0  0  0  0
   11.4353   -2.9204   17.8044 C   0  0  0  0  0  0  0  0  0  0  0  0
   11.1529   -4.3028   22.1277 C   0  0  0  0  0  0  0  0  0  0  0  0
   11.1290   -4.8502   19.8052 C   0  0  0  0  0  0  0  0  0  0  0  0
   12.4329   -4.2159   24.4224 C   0  0  0  0  0  0  0  0  0  0  0  0
    3.4740   -9.0387   16.5022 C   0  0  0  0  0  0  0  0  0  0  0  0
    6.8384   -7.9290   17.5282 N   0  0  0  0  0  0  0  0  0  0  0  0
    9.4126   -5.9853   18.4899 C   0  0  0  0  0  0  0  0  0  0  0  0
    4.2064  -10.3242   18.3302 C   0  0  0  0  0  0  0  0  0  0  0  0
    9.6599   -4.1551   16.4796 N   0  0  0  0  0  0  0  0  0  0  0  0
    7.0644   -6.4612   15.7375 N   0  0  0  0  0  0  0  0  0  0  0  0
    5.3549   -9.6322   18.3190 C   0  0  0  0  0  0  0  0  0  0  0  0
   10.3704   -4.9638   18.6510 C   0  0  0  0  0  0  0  0  0  0  0  0
    5.5935   -8.6419   17.4234 C   0  0  0  0  0  0  0  0  0  0  0  0
   13.0726   -4.6648   23.3394 O   0  0  0  0  0  0  0  0  0  0  0  0
    8.5955   -6.0705   17.3996 C   0  0  0  0  0  0  0  0  0  0  0  0
    4.6223   -8.3832   16.5030 C   0  0  0  0  0  0  0  0  0  0  0  0
   12.4690   -5.2624   19.9024 C   0  0  0  0  0  0  0  0  0  0  0  0
    3.2548   -9.9919   17.4189 C   0  0  0  0  0  0  0  0  0  0  0  0
   12.4767   -4.7393   22.1790 C   0  0  0  0  0  0  0  0  0  0  0  0
    7.8593   -5.3772   15.3569 N   0  0  0  0  0  0  0  0  0  0  0  0
    7.4412   -6.9038   16.9283 C   0  0  0  0  0  0  0  0  0  0  0  0
  1 21  4  0
  1 23  4  0
  2  5  1  0
  2 13  4  0
  2 16  4  0
  3  6  4  0
  3  7  4  0
  4 13  4  0
  4 19  4  0
  4 24  4  0
  6 23  4  0
  7 16  1  0
  7 21  4  0
  8 18  1  0
  9 20  4  0
  9 22  4  0
 10 17  1  0
 10 25  1  0
 11 16  4  0
 11 19  4  0
 12 15  4  0
 12 22  4  0
 14 24  4  0
 14 25  4  0
 15 17  4  0
 17 20  4  0
 18 23  1  0
 19 25  4  0
M  END
$$$$

 Created by Python create_sdf_string function

 25 28  0  0  0  0  0  0  0  0999 V2000
   13.1533   -5.2399   21.0682 C   0  0  0  0  0  0  0  0  0  0  0  0
   10.4729   -4.0295   17.6135 C   0  0  0  0  0  0  0  0  0  0  0  0
   10.4789   -4.3641   20.9564 C   0  0  0  0  0  0  0  0  0  0  0  0
    8.7421   -5.1412   16.3650 C   0  0  0  0  0  0  0  0  0  0  0  0
   11.4353   -2.9204   17.8044 C   0  0  0  0  0  0  0  0  0  0  0  0
   11.1529   -4.3028   22.1277 C   0  0  0  0  0  0  0  0  0  0  0  0
   11.1290   -4.8502   19.8052 C   0  0  0  0  0  0  0  0  0  0  0  0
   12.4329   -4.2159   24.4224 C   0  0  0  0  0  0  0  0  0  0  0  0
    3.4740   -9.0387   16.5022 C   0  0  0  0  0  0  0  0  0  0  0  0
    6.8384   -7.9290   17.5282 N   0  0  0  0  0  0  0  0  0  0  0  0
    9.4126   -5.9853   18.4899 C   0  0  0  0  0  0  0  0  0  0  0  0
    4.2064  -10.3242   18.3302 C   0  0  0  0  0  0  0  0  0  0  0  0
    9.6599   -4.1551   16.4796 N   0  0  0  0  0  0  0  0  0  0  0  0
    7.0644   -6.4612   15.7375 N   0  0  0  0  0  0  0  0  0  0  0  0
    5.3549   -9.6322   18.3190 C   0  0  0  0  0  0  0  0  0  0  0  0
   10.3704   -4.9638   18.6510 C   0  0  0  0  0  0  0  0  0  0  0  0
    5.5935   -8.6419   17.4234 C   0  0  0  0  0  0  0  0  0  0  0  0
   13.0726   -4.6648   23.3394 O   0  0  0  0  0  0  0  0  0  0  0  0
    8.5955   -6.0705   17.3996 C   0  0  0  0  0  0  0  0  0  0  0  0
    4.6223   -8.3832   16.5030 C   0  0  0  0  0  0  0  0  0  0  0  0
   12.4690   -5.2624   19.9024 C   0  0  0  0  0  0  0  0  0  0  0  0
    3.2548   -9.9919   17.4189 C   0  0  0  0  0  0  0  0  0  0  0  0
   12.4767   -4.7393   22.1790 C   0  0  0  0  0  0  0  0  0  0  0  0
    7.8593   -5.3772   15.3569 N   0  0  0  0  0  0  0  0  0  0  0  0
    7.4412   -6.9038   16.9283 C   0  0  0  0  0  0  0  0  0  0  0  0
  1 21  4  0
  1 23  4  0
  2  5  1  0
  2 13  4  0
  2 16  4  0
  3  6  4  0
  3  7  4  0
  4 13  4  0
  4 19  4  0
  4 24  4  0
  6 23  4  0
  7 16  1  0
  7 21  4  0
  8 18  1  0
  9 20  4  0
  9 22  4  0
 10 17  1  0
 10 25  1  0
 11 16  4  0
 11 19  4  0
 12 15  4  0
 12 22  4  0
 14 24  4  0
 14 25  4  0
 15 17  4  0
 17 20  4  0
 18 23  1  0
 19 25  4  0
M  END
$$$$

 Created by Python create_sdf_string function

 25 28  0  0  0  0  0  0  0  0999 V2000
   13.1533   -5.2399   21.0682 C   0  0  0  0  0  0  0  0  0  0  0  0
   10.4729   -4.0295   17.6135 C   0  0  0  0  0  0  0  0  0  0  0  0
   10.4789   -4.3641   20.9564 C   0  0  0  0  0  0  0  0  0  0  0  0
    8.7421   -5.1412   16.3650 C   0  0  0  0  0  0  0  0  0  0  0  0
   11.4353   -2.9204   17.8044 C   0  0  0  0  0  0  0  0  0  0  0  0
   11.1529   -4.3028   22.1277 C   0  0  0  0  0  0  0  0  0  0  0  0
   11.1290   -4.8502   19.8052 C   0  0  0  0  0  0  0  0  0  0  0  0
   12.4329   -4.2159   24.4224 C   0  0  0  0  0  0  0  0  0  0  0  0
    3.4740   -9.0387   16.5022 C   0  0  0  0  0  0  0  0  0  0  0  0
    6.8384   -7.9290   17.5282 N   0  0  0  0  0  0  0  0  0  0  0  0
    9.4126   -5.9853   18.4899 C   0  0  0  0  0  0  0  0  0  0  0  0
    4.2064  -10.3242   18.3302 C   0  0  0  0  0  0  0  0  0  0  0  0
    9.6599   -4.1551   16.4796 N   0  0  0  0  0  0  0  0  0  0  0  0
    7.0644   -6.4612   15.7375 N   0  0  0  0  0  0  0  0  0  0  0  0
    5.3549   -9.6322   18.3190 C   0  0  0  0  0  0  0  0  0  0  0  0
   10.3704   -4.9638   18.6510 C   0  0  0  0  0  0  0  0  0  0  0  0
    5.5935   -8.6419   17.4234 C   0  0  0  0  0  0  0  0  0  0  0  0
   13.0726   -4.6648   23.3394 O   0  0  0  0  0  0  0  0  0  0  0  0
    8.5955   -6.0705   17.3996 C   0  0  0  0  0  0  0  0  0  0  0  0
    4.6223   -8.3832   16.5030 C   0  0  0  0  0  0  0  0  0  0  0  0
   12.4690   -5.2624   19.9024 C   0  0  0  0  0  0  0  0  0  0  0  0
    3.2548   -9.9919   17.4189 C   0  0  0  0  0  0  0  0  0  0  0  0
   12.4767   -4.7393   22.1790 C   0  0  0  0  0  0  0  0  0  0  0  0
    7.8593   -5.3772   15.3569 N   0  0  0  0  0  0  0  0  0  0  0  0
    7.4412   -6.9038   16.9283 C   0  0  0  0  0  0  0  0  0  0  0  0
  1 21  4  0
  1 23  4  0
  2  5  1  0
  2 13  4  0
  2 16  4  0
  3  6  4  0
  3  7  4  0
  4 13  4  0
  4 19  4  0
  4 24  4  0
  6 23  4  0
  7 16  1  0
  7 21  4  0
  8 18  1  0
  9 20  4  0
  9 22  4  0
 10 17  1  0
 10 25  1  0
 11 16  4  0
 11 19  4  0
 12 15  4  0
 12 22  4  0
 14 24  4  0
 14 25  4  0
 15 17  4  0
 17 20  4  0
 18 23  1  0
 19 25  4  0
M  END
$$$$

 Created by Python create_sdf_string function

 25 28  0  0  0  0  0  0  0  0999 V2000
   13.1533   -5.2399   21.0682 C   0  0  0  0  0  0  0  0  0  0  0  0
   10.4729   -4.0295   17.6135 C   0  0  0  0  0  0  0  0  0  0  0  0
   10.4789   -4.3641   20.9564 C   0  0  0  0  0  0  0  0  0  0  0  0
    8.7421   -5.1412   16.3650 C   0  0  0  0  0  0  0  0  0  0  0  0
   11.4353   -2.9204   17.8044 C   0  0  0  0  0  0  0  0  0  0  0  0
   11.1529   -4.3028   22.1277 C   0  0  0  0  0  0  0  0  0  0  0  0
   11.1290   -4.8502   19.8052 C   0  0  0  0  0  0  0  0  0  0  0  0
   12.4329   -4.2159   24.4224 C   0  0  0  0  0  0  0  0  0  0  0  0
    3.4740   -9.0387   16.5022 C   0  0  0  0  0  0  0  0  0  0  0  0
    6.8384   -7.9290   17.5282 N   0  0  0  0  0  0  0  0  0  0  0  0
    9.4126   -5.9853   18.4899 C   0  0  0  0  0  0  0  0  0  0  0  0
    4.2064  -10.3242   18.3302 C   0  0  0  0  0  0  0  0  0  0  0  0
    9.6599   -4.1551   16.4796 N   0  0  0  0  0  0  0  0  0  0  0  0
    7.0644   -6.4612   15.7375 N   0  0  0  0  0  0  0  0  0  0  0  0
    5.3549   -9.6322   18.3190 C   0  0  0  0  0  0  0  0  0  0  0  0
   10.3704   -4.9638   18.6510 C   0  0  0  0  0  0  0  0  0  0  0  0
    5.5935   -8.6419   17.4234 C   0  0  0  0  0  0  0  0  0  0  0  0
   13.0726   -4.6648   23.3394 O   0  0  0  0  0  0  0  0  0  0  0  0
    8.5955   -6.0705   17.3996 C   0  0  0  0  0  0  0  0  0  0  0  0
    4.6223   -8.3832   16.5030 C   0  0  0  0  0  0  0  0  0  0  0  0
   12.4690   -5.2624   19.9024 C   0  0  0  0  0  0  0  0  0  0  0  0
    3.2548   -9.9919   17.4189 C   0  0  0  0  0  0  0  0  0  0  0  0
   12.4767   -4.7393   22.1790 C   0  0  0  0  0  0  0  0  0  0  0  0
    7.8593   -5.3772   15.3569 N   0  0  0  0  0  0  0  0  0  0  0  0
    7.4412   -6.9038   16.9283 C   0  0  0  0  0  0  0  0  0  0  0  0
  1 21  4  0
  1 23  4  0
  2  5  1  0
  2 13  4  0
  2 16  4  0
  3  6  4  0
  3  7  4  0
  4 13  4  0
  4 19  4  0
  4 24  4  0
  6 23  4  0
  7 16  1  0
  7 21  4  0
  8 18  1  0
  9 20  4  0
  9 22  4  0
 10 17  1  0
 10 25  1  0
 11 16  4  0
 11 19  4  0
 12 15  4  0
 12 22  4  0
 14 24  4  0
 14 25  4  0
 15 17  4  0
 17 20  4  0
 18 23  1  0
 19 25  4  0
M  END
$$$$

 Created by Python create_sdf_string function

 25 28  0  0  0  0  0  0  0  0999 V2000
   13.1533   -5.2399   21.0682 C   0  0  0  0  0  0  0  0  0  0  0  0
   10.4729   -4.0295   17.6135 C   0  0  0  0  0  0  0  0  0  0  0  0
   10.4789   -4.3641   20.9564 C   0  0  0  0  0  0  0  0  0  0  0  0
    8.7421   -5.1412   16.3650 C   0  0  0  0  0  0  0  0  0  0  0  0
   11.4353   -2.9204   17.8044 C   0  0  0  0  0  0  0  0  0  0  0  0
   11.1529   -4.3028   22.1277 C   0  0  0  0  0  0  0  0  0  0  0  0
   11.1290   -4.8502   19.8052 C   0  0  0  0  0  0  0  0  0  0  0  0
   12.4329   -4.2159   24.4224 C   0  0  0  0  0  0  0  0  0  0  0  0
    3.4740   -9.0387   16.5022 C   0  0  0  0  0  0  0  0  0  0  0  0
    6.8384   -7.9290   17.5282 N   0  0  0  0  0  0  0  0  0  0  0  0
    9.4126   -5.9853   18.4899 C   0  0  0  0  0  0  0  0  0  0  0  0
    4.2064  -10.3242   18.3302 C   0  0  0  0  0  0  0  0  0  0  0  0
    9.6599   -4.1551   16.4796 N   0  0  0  0  0  0  0  0  0  0  0  0
    7.0644   -6.4612   15.7375 N   0  0  0  0  0  0  0  0  0  0  0  0
    5.3549   -9.6322   18.3190 C   0  0  0  0  0  0  0  0  0  0  0  0
   10.3704   -4.9638   18.6510 C   0  0  0  0  0  0  0  0  0  0  0  0
    5.5935   -8.6419   17.4234 C   0  0  0  0  0  0  0  0  0  0  0  0
   13.0726   -4.6648   23.3394 O   0  0  0  0  0  0  0  0  0  0  0  0
    8.5955   -6.0705   17.3996 C   0  0  0  0  0  0  0  0  0  0  0  0
    4.6223   -8.3832   16.5030 C   0  0  0  0  0  0  0  0  0  0  0  0
   12.4690   -5.2624   19.9024 C   0  0  0  0  0  0  0  0  0  0  0  0
    3.2548   -9.9919   17.4189 C   0  0  0  0  0  0  0  0  0  0  0  0
   12.4767   -4.7393   22.1790 C   0  0  0  0  0  0  0  0  0  0  0  0
    7.8593   -5.3772   15.3569 N   0  0  0  0  0  0  0  0  0  0  0  0
    7.4412   -6.9038   16.9283 C   0  0  0  0  0  0  0  0  0  0  0  0
  1 21  4  0
  1 23  4  0
  2  5  1  0
  2 13  4  0
  2 16  4  0
  3  6  4  0
  3  7  4  0
  4 13  4  0
  4 19  4  0
  4 24  4  0
  6 23  4  0
  7 16  1  0
  7 21  4  0
  8 18  1  0
  9 20  4  0
  9 22  4  0
 10 17  1  0
 10 25  1  0
 11 16  4  0
 11 19  4  0
 12 15  4  0
 12 22  4  0
 14 24  4  0
 14 25  4  0
 15 17  4  0
 17 20  4  0
 18 23  1  0
 19 25  4  0
M  END
$$$$

 Created by Python create_sdf_string function

 25 28  0  0  0  0  0  0  0  0999 V2000
   13.1533   -5.2399   21.0682 C   0  0  0  0  0  0  0  0  0  0  0  0
   10.4729   -4.0295   17.6135 C   0  0  0  0  0  0  0  0  0  0  0  0
   10.4789   -4.3641   20.9564 C   0  0  0  0  0  0  0  0  0  0  0  0
    8.7421   -5.1412   16.3650 C   0  0  0  0  0  0  0  0  0  0  0  0
   11.4353   -2.9204   17.8044 C   0  0  0  0  0  0  0  0  0  0  0  0
   11.1529   -4.3028   22.1277 C   0  0  0  0  0  0  0  0  0  0  0  0
   11.1290   -4.8502   19.8052 C   0  0  0  0  0  0  0  0  0  0  0  0
   12.4329   -4.2159   24.4224 C   0  0  0  0  0  0  0  0  0  0  0  0
    3.4740   -9.0387   16.5022 C   0  0  0  0  0  0  0  0  0  0  0  0
    6.8384   -7.9290   17.5282 N   0  0  0  0  0  0  0  0  0  0  0  0
    9.4126   -5.9853   18.4899 C   0  0  0  0  0  0  0  0  0  0  0  0
    4.2064  -10.3242   18.3302 C   0  0  0  0  0  0  0  0  0  0  0  0
    9.6599   -4.1551   16.4796 N   0  0  0  0  0  0  0  0  0  0  0  0
    7.0644   -6.4612   15.7375 N   0  0  0  0  0  0  0  0  0  0  0  0
    5.3549   -9.6322   18.3190 C   0  0  0  0  0  0  0  0  0  0  0  0
   10.3704   -4.9638   18.6510 C   0  0  0  0  0  0  0  0  0  0  0  0
    5.5935   -8.6419   17.4234 C   0  0  0  0  0  0  0  0  0  0  0  0
   13.0726   -4.6648   23.3394 O   0  0  0  0  0  0  0  0  0  0  0  0
    8.5955   -6.0705   17.3996 C   0  0  0  0  0  0  0  0  0  0  0  0
    4.6223   -8.3832   16.5030 C   0  0  0  0  0  0  0  0  0  0  0  0
   12.4690   -5.2624   19.9024 C   0  0  0  0  0  0  0  0  0  0  0  0
    3.2548   -9.9919   17.4189 C   0  0  0  0  0  0  0  0  0  0  0  0
   12.4767   -4.7393   22.1790 C   0  0  0  0  0  0  0  0  0  0  0  0
    7.8593   -5.3772   15.3569 N   0  0  0  0  0  0  0  0  0  0  0  0
    7.4412   -6.9038   16.9283 C   0  0  0  0  0  0  0  0  0  0  0  0
  1 21  4  0
  1 23  4  0
  2  5  1  0
  2 13  4  0
  2 16  4  0
  3  6  4  0
  3  7  4  0
  4 13  4  0
  4 19  4  0
  4 24  4  0
  6 23  4  0
  7 16  1  0
  7 21  4  0
  8 18  1  0
  9 20  4  0
  9 22  4  0
 10 17  1  0
 10 25  1  0
 11 16  4  0
 11 19  4  0
 12 15  4  0
 12 22  4  0
 14 24  4  0
 14 25  4  0
 15 17  4  0
 17 20  4  0
 18 23  1  0
 19 25  4  0
M  END
$$$$

 Created by Python create_sdf_string function

 25 28  0  0  0  0  0  0  0  0999 V2000
   13.1533   -5.2399   21.0682 C   0  0  0  0  0  0  0  0  0  0  0  0
   10.4729   -4.0295   17.6135 C   0  0  0  0  0  0  0  0  0  0  0  0
   10.4789   -4.3641   20.9564 C   0  0  0  0  0  0  0  0  0  0  0  0
    8.7421   -5.1412   16.3650 C   0  0  0  0  0  0  0  0  0  0  0  0
   11.4353   -2.9204   17.8044 C   0  0  0  0  0  0  0  0  0  0  0  0
   11.1529   -4.3028   22.1277 C   0  0  0  0  0  0  0  0  0  0  0  0
   11.1290   -4.8502   19.8052 C   0  0  0  0  0  0  0  0  0  0  0  0
   12.4329   -4.2159   24.4224 C   0  0  0  0  0  0  0  0  0  0  0  0
    3.4740   -9.0387   16.5022 C   0  0  0  0  0  0  0  0  0  0  0  0
    6.8384   -7.9290   17.5282 N   0  0  0  0  0  0  0  0  0  0  0  0
    9.4126   -5.9853   18.4899 C   0  0  0  0  0  0  0  0  0  0  0  0
    4.2064  -10.3242   18.3302 C   0  0  0  0  0  0  0  0  0  0  0  0
    9.6599   -4.1551   16.4796 N   0  0  0  0  0  0  0  0  0  0  0  0
    7.0644   -6.4612   15.7375 N   0  0  0  0  0  0  0  0  0  0  0  0
    5.3549   -9.6322   18.3190 C   0  0  0  0  0  0  0  0  0  0  0  0
   10.3704   -4.9638   18.6510 C   0  0  0  0  0  0  0  0  0  0  0  0
    5.5935   -8.6419   17.4234 C   0  0  0  0  0  0  0  0  0  0  0  0
   13.0726   -4.6648   23.3394 O   0  0  0  0  0  0  0  0  0  0  0  0
    8.5955   -6.0705   17.3996 C   0  0  0  0  0  0  0  0  0  0  0  0
    4.6223   -8.3832   16.5030 C   0  0  0  0  0  0  0  0  0  0  0  0
   12.4690   -5.2624   19.9024 C   0  0  0  0  0  0  0  0  0  0  0  0
    3.2548   -9.9919   17.4189 C   0  0  0  0  0  0  0  0  0  0  0  0
   12.4767   -4.7393   22.1790 C   0  0  0  0  0  0  0  0  0  0  0  0
    7.8593   -5.3772   15.3569 N   0  0  0  0  0  0  0  0  0  0  0  0
    7.4412   -6.9038   16.9283 C   0  0  0  0  0  0  0  0  0  0  0  0
  1 21  4  0
  1 23  4  0
  2  5  1  0
  2 13  4  0
  2 16  4  0
  3  6  4  0
  3  7  4  0
  4 13  4  0
  4 19  4  0
  4 24  4  0
  6 23  4  0
  7 16  1  0
  7 21  4  0
  8 18  1  0
  9 20  4  0
  9 22  4  0
 10 17  1  0
 10 25  1  0
 11 16  4  0
 11 19  4  0
 12 15  4  0
 12 22  4  0
 14 24  4  0
 14 25  4  0
 15 17  4  0
 17 20  4  0
 18 23  1  0
 19 25  4  0
M  END
$$$$

 Created by Python create_sdf_string function

 25 28  0  0  0  0  0  0  0  0999 V2000
   13.1533   -5.2399   21.0682 C   0  0  0  0  0  0  0  0  0  0  0  0
   10.4729   -4.0295   17.6135 C   0  0  0  0  0  0  0  0  0  0  0  0
   10.4789   -4.3641   20.9564 C   0  0  0  0  0  0  0  0  0  0  0  0
    8.7421   -5.1412   16.3650 C   0  0  0  0  0  0  0  0  0  0  0  0
   11.4353   -2.9204   17.8044 C   0  0  0  0  0  0  0  0  0  0  0  0
   11.1529   -4.3028   22.1277 C   0  0  0  0  0  0  0  0  0  0  0  0
   11.1290   -4.8502   19.8052 C   0  0  0  0  0  0  0  0  0  0  0  0
   12.4329   -4.2159   24.4224 C   0  0  0  0  0  0  0  0  0  0  0  0
    3.4740   -9.0387   16.5022 C   0  0  0  0  0  0  0  0  0  0  0  0
    6.8384   -7.9290   17.5282 N   0  0  0  0  0  0  0  0  0  0  0  0
    9.4126   -5.9853   18.4899 C   0  0  0  0  0  0  0  0  0  0  0  0
    4.2064  -10.3242   18.3302 C   0  0  0  0  0  0  0  0  0  0  0  0
    9.6599   -4.1551   16.4796 N   0  0  0  0  0  0  0  0  0  0  0  0
    7.0644   -6.4612   15.7375 N   0  0  0  0  0  0  0  0  0  0  0  0
    5.3549   -9.6322   18.3190 C   0  0  0  0  0  0  0  0  0  0  0  0
   10.3704   -4.9638   18.6510 C   0  0  0  0  0  0  0  0  0  0  0  0
    5.5935   -8.6419   17.4234 C   0  0  0  0  0  0  0  0  0  0  0  0
   13.0726   -4.6648   23.3394 O   0  0  0  0  0  0  0  0  0  0  0  0
    8.5955   -6.0705   17.3996 C   0  0  0  0  0  0  0  0  0  0  0  0
    4.6223   -8.3832   16.5030 C   0  0  0  0  0  0  0  0  0  0  0  0
   12.4690   -5.2624   19.9024 C   0  0  0  0  0  0  0  0  0  0  0  0
    3.2548   -9.9919   17.4189 C   0  0  0  0  0  0  0  0  0  0  0  0
   12.4767   -4.7393   22.1790 C   0  0  0  0  0  0  0  0  0  0  0  0
    7.8593   -5.3772   15.3569 N   0  0  0  0  0  0  0  0  0  0  0  0
    7.4412   -6.9038   16.9283 C   0  0  0  0  0  0  0  0  0  0  0  0
  1 21  4  0
  1 23  4  0
  2  5  1  0
  2 13  4  0
  2 16  4  0
  3  6  4  0
  3  7  4  0
  4 13  4  0
  4 19  4  0
  4 24  4  0
  6 23  4  0
  7 16  1  0
  7 21  4  0
  8 18  1  0
  9 20  4  0
  9 22  4  0
 10 17  1  0
 10 25  1  0
 11 16  4  0
 11 19  4  0
 12 15  4  0
 12 22  4  0
 14 24  4  0
 14 25  4  0
 15 17  4  0
 17 20  4  0
 18 23  1  0
 19 25  4  0
M  END
$$$$

 Created by Python create_sdf_string function

 25 28  0  0  0  0  0  0  0  0999 V2000
   13.1533   -5.2399   21.0682 C   0  0  0  0  0  0  0  0  0  0  0  0
   10.4729   -4.0295   17.6135 C   0  0  0  0  0  0  0  0  0  0  0  0
   10.4789   -4.3641   20.9564 C   0  0  0  0  0  0  0  0  0  0  0  0
    8.7421   -5.1412   16.3650 C   0  0  0  0  0  0  0  0  0  0  0  0
   11.4353   -2.9204   17.8044 C   0  0  0  0  0  0  0  0  0  0  0  0
   11.1529   -4.3028   22.1277 C   0  0  0  0  0  0  0  0  0  0  0  0
   11.1290   -4.8502   19.8052 C   0  0  0  0  0  0  0  0  0  0  0  0
   12.4329   -4.2159   24.4224 C   0  0  0  0  0  0  0  0  0  0  0  0
    3.4740   -9.0387   16.5022 C   0  0  0  0  0  0  0  0  0  0  0  0
    6.8384   -7.9290   17.5282 N   0  0  0  0  0  0  0  0  0  0  0  0
    9.4126   -5.9853   18.4899 C   0  0  0  0  0  0  0  0  0  0  0  0
    4.2064  -10.3242   18.3302 C   0  0  0  0  0  0  0  0  0  0  0  0
    9.6599   -4.1551   16.4796 N   0  0  0  0  0  0  0  0  0  0  0  0
    7.0644   -6.4612   15.7375 N   0  0  0  0  0  0  0  0  0  0  0  0
    5.3549   -9.6322   18.3190 C   0  0  0  0  0  0  0  0  0  0  0  0
   10.3704   -4.9638   18.6510 C   0  0  0  0  0  0  0  0  0  0  0  0
    5.5935   -8.6419   17.4234 C   0  0  0  0  0  0  0  0  0  0  0  0
   13.0726   -4.6648   23.3394 O   0  0  0  0  0  0  0  0  0  0  0  0
    8.5955   -6.0705   17.3996 C   0  0  0  0  0  0  0  0  0  0  0  0
    4.6223   -8.3832   16.5030 C   0  0  0  0  0  0  0  0  0  0  0  0
   12.4690   -5.2624   19.9024 C   0  0  0  0  0  0  0  0  0  0  0  0
    3.2548   -9.9919   17.4189 C   0  0  0  0  0  0  0  0  0  0  0  0
   12.4767   -4.7393   22.1790 C   0  0  0  0  0  0  0  0  0  0  0  0
    7.8593   -5.3772   15.3569 N   0  0  0  0  0  0  0  0  0  0  0  0
    7.4412   -6.9038   16.9283 C   0  0  0  0  0  0  0  0  0  0  0  0
  1 21  4  0
  1 23  4  0
  2  5  1  0
  2 13  4  0
  2 16  4  0
  3  6  4  0
  3  7  4  0
  4 13  4  0
  4 19  4  0
  4 24  4  0
  6 23  4  0
  7 16  1  0
  7 21  4  0
  8 18  1  0
  9 20  4  0
  9 22  4  0
 10 17  1  0
 10 25  1  0
 11 16  4  0
 11 19  4  0
 12 15  4  0
 12 22  4  0
 14 24  4  0
 14 25  4  0
 15 17  4  0
 17 20  4  0
 18 23  1  0
 19 25  4  0
M  END
$$$$

 Created by Python create_sdf_string function

 25 28  0  0  0  0  0  0  0  0999 V2000
   13.1533   -5.2399   21.0682 C   0  0  0  0  0  0  0  0  0  0  0  0
   10.4729   -4.0295   17.6135 C   0  0  0  0  0  0  0  0  0  0  0  0
   10.4789   -4.3641   20.9564 C   0  0  0  0  0  0  0  0  0  0  0  0
    8.7421   -5.1412   16.3650 C   0  0  0  0  0  0  0  0  0  0  0  0
   11.4353   -2.9204   17.8044 C   0  0  0  0  0  0  0  0  0  0  0  0
   11.1529   -4.3028   22.1277 C   0  0  0  0  0  0  0  0  0  0  0  0
   11.1290   -4.8502   19.8052 C   0  0  0  0  0  0  0  0  0  0  0  0
   12.4329   -4.2159   24.4224 C   0  0  0  0  0  0  0  0  0  0  0  0
    3.4740   -9.0387   16.5022 C   0  0  0  0  0  0  0  0  0  0  0  0
    6.8384   -7.9290   17.5282 N   0  0  0  0  0  0  0  0  0  0  0  0
    9.4126   -5.9853   18.4899 C   0  0  0  0  0  0  0  0  0  0  0  0
    4.2064  -10.3242   18.3302 C   0  0  0  0  0  0  0  0  0  0  0  0
    9.6599   -4.1551   16.4796 N   0  0  0  0  0  0  0  0  0  0  0  0
    7.0644   -6.4612   15.7375 N   0  0  0  0  0  0  0  0  0  0  0  0
    5.3549   -9.6322   18.3190 C   0  0  0  0  0  0  0  0  0  0  0  0
   10.3704   -4.9638   18.6510 C   0  0  0  0  0  0  0  0  0  0  0  0
    5.5935   -8.6419   17.4234 C   0  0  0  0  0  0  0  0  0  0  0  0
   13.0726   -4.6648   23.3394 O   0  0  0  0  0  0  0  0  0  0  0  0
    8.5955   -6.0705   17.3996 C   0  0  0  0  0  0  0  0  0  0  0  0
    4.6223   -8.3832   16.5030 C   0  0  0  0  0  0  0  0  0  0  0  0
   12.4690   -5.2624   19.9024 C   0  0  0  0  0  0  0  0  0  0  0  0
    3.2548   -9.9919   17.4189 C   0  0  0  0  0  0  0  0  0  0  0  0
   12.4767   -4.7393   22.1790 C   0  0  0  0  0  0  0  0  0  0  0  0
    7.8593   -5.3772   15.3569 N   0  0  0  0  0  0  0  0  0  0  0  0
    7.4412   -6.9038   16.9283 C   0  0  0  0  0  0  0  0  0  0  0  0
  1 21  4  0
  1 23  4  0
  2  5  1  0
  2 13  4  0
  2 16  4  0
  3  6  4  0
  3  7  4  0
  4 13  4  0
  4 19  4  0
  4 24  4  0
  6 23  4  0
  7 16  1  0
  7 21  4  0
  8 18  1  0
  9 20  4  0
  9 22  4  0
 10 17  1  0
 10 25  1  0
 11 16  4  0
 11 19  4  0
 12 15  4  0
 12 22  4  0
 14 24  4  0
 14 25  4  0
 15 17  4  0
 17 20  4  0
 18 23  1  0
 19 25  4  0
M  END
$$$$

 Created by Python create_sdf_string function

 25 28  0  0  0  0  0  0  0  0999 V2000
   13.1533   -5.2399   21.0682 C   0  0  0  0  0  0  0  0  0  0  0  0
   10.4729   -4.0295   17.6135 C   0  0  0  0  0  0  0  0  0  0  0  0
   10.4789   -4.3641   20.9564 C   0  0  0  0  0  0  0  0  0  0  0  0
    8.7421   -5.1412   16.3650 C   0  0  0  0  0  0  0  0  0  0  0  0
   11.4353   -2.9204   17.8044 C   0  0  0  0  0  0  0  0  0  0  0  0
   11.1529   -4.3028   22.1277 C   0  0  0  0  0  0  0  0  0  0  0  0
   11.1290   -4.8502   19.8052 C   0  0  0  0  0  0  0  0  0  0  0  0
   12.4329   -4.2159   24.4224 C   0  0  0  0  0  0  0  0  0  0  0  0
    3.4740   -9.0387   16.5022 C   0  0  0  0  0  0  0  0  0  0  0  0
    6.8384   -7.9290   17.5282 N   0  0  0  0  0  0  0  0  0  0  0  0
    9.4126   -5.9853   18.4899 C   0  0  0  0  0  0  0  0  0  0  0  0
    4.2064  -10.3242   18.3302 C   0  0  0  0  0  0  0  0  0  0  0  0
    9.6599   -4.1551   16.4796 N   0  0  0  0  0  0  0  0  0  0  0  0
    7.0644   -6.4612   15.7375 N   0  0  0  0  0  0  0  0  0  0  0  0
    5.3549   -9.6322   18.3190 C   0  0  0  0  0  0  0  0  0  0  0  0
   10.3704   -4.9638   18.6510 C   0  0  0  0  0  0  0  0  0  0  0  0
    5.5935   -8.6419   17.4234 C   0  0  0  0  0  0  0  0  0  0  0  0
   13.0726   -4.6648   23.3394 O   0  0  0  0  0  0  0  0  0  0  0  0
    8.5955   -6.0705   17.3996 C   0  0  0  0  0  0  0  0  0  0  0  0
    4.6223   -8.3832   16.5030 C   0  0  0  0  0  0  0  0  0  0  0  0
   12.4690   -5.2624   19.9024 C   0  0  0  0  0  0  0  0  0  0  0  0
    3.2548   -9.9919   17.4189 C   0  0  0  0  0  0  0  0  0  0  0  0
   12.4767   -4.7393   22.1790 C   0  0  0  0  0  0  0  0  0  0  0  0
    7.8593   -5.3772   15.3569 N   0  0  0  0  0  0  0  0  0  0  0  0
    7.4412   -6.9038   16.9283 C   0  0  0  0  0  0  0  0  0  0  0  0
  1 21  4  0
  1 23  4  0
  2  5  1  0
  2 13  4  0
  2 16  4  0
  3  6  4  0
  3  7  4  0
  4 13  4  0
  4 19  4  0
  4 24  4  0
  6 23  4  0
  7 16  1  0
  7 21  4  0
  8 18  1  0
  9 20  4  0
  9 22  4  0
 10 17  1  0
 10 25  1  0
 11 16  4  0
 11 19  4  0
 12 15  4  0
 12 22  4  0
 14 24  4  0
 14 25  4  0
 15 17  4  0
 17 20  4  0
 18 23  1  0
 19 25  4  0
M  END
$$$$

 Created by Python create_sdf_string function

 25 28  0  0  0  0  0  0  0  0999 V2000
   13.1533   -5.2399   21.0682 C   0  0  0  0  0  0  0  0  0  0  0  0
   10.4729   -4.0295   17.6135 C   0  0  0  0  0  0  0  0  0  0  0  0
   10.4789   -4.3641   20.9564 C   0  0  0  0  0  0  0  0  0  0  0  0
    8.7421   -5.1412   16.3650 C   0  0  0  0  0  0  0  0  0  0  0  0
   11.4353   -2.9204   17.8044 C   0  0  0  0  0  0  0  0  0  0  0  0
   11.1529   -4.3028   22.1277 C   0  0  0  0  0  0  0  0  0  0  0  0
   11.1290   -4.8502   19.8052 C   0  0  0  0  0  0  0  0  0  0  0  0
   12.4329   -4.2159   24.4224 C   0  0  0  0  0  0  0  0  0  0  0  0
    3.4740   -9.0387   16.5022 C   0  0  0  0  0  0  0  0  0  0  0  0
    6.8384   -7.9290   17.5282 N   0  0  0  0  0  0  0  0  0  0  0  0
    9.4126   -5.9853   18.4899 C   0  0  0  0  0  0  0  0  0  0  0  0
    4.2064  -10.3242   18.3302 C   0  0  0  0  0  0  0  0  0  0  0  0
    9.6599   -4.1551   16.4796 N   0  0  0  0  0  0  0  0  0  0  0  0
    7.0644   -6.4612   15.7375 N   0  0  0  0  0  0  0  0  0  0  0  0
    5.3549   -9.6322   18.3190 C   0  0  0  0  0  0  0  0  0  0  0  0
   10.3704   -4.9638   18.6510 C   0  0  0  0  0  0  0  0  0  0  0  0
    5.5935   -8.6419   17.4234 C   0  0  0  0  0  0  0  0  0  0  0  0
   13.0726   -4.6648   23.3394 O   0  0  0  0  0  0  0  0  0  0  0  0
    8.5955   -6.0705   17.3996 C   0  0  0  0  0  0  0  0  0  0  0  0
    4.6223   -8.3832   16.5030 C   0  0  0  0  0  0  0  0  0  0  0  0
   12.4690   -5.2624   19.9024 C   0  0  0  0  0  0  0  0  0  0  0  0
    3.2548   -9.9919   17.4189 C   0  0  0  0  0  0  0  0  0  0  0  0
   12.4767   -4.7393   22.1790 C   0  0  0  0  0  0  0  0  0  0  0  0
    7.8593   -5.3772   15.3569 N   0  0  0  0  0  0  0  0  0  0  0  0
    7.4412   -6.9038   16.9283 C   0  0  0  0  0  0  0  0  0  0  0  0
  1 21  4  0
  1 23  4  0
  2  5  1  0
  2 13  4  0
  2 16  4  0
  3  6  4  0
  3  7  4  0
  4 13  4  0
  4 19  4  0
  4 24  4  0
  6 23  4  0
  7 16  1  0
  7 21  4  0
  8 18  1  0
  9 20  4  0
  9 22  4  0
 10 17  1  0
 10 25  1  0
 11 16  4  0
 11 19  4  0
 12 15  4  0
 12 22  4  0
 14 24  4  0
 14 25  4  0
 15 17  4  0
 17 20  4  0
 18 23  1  0
 19 25  4  0
M  END
$$$$

 Created by Python create_sdf_string function

 25 28  0  0  0  0  0  0  0  0999 V2000
   13.1533   -5.2399   21.0682 C   0  0  0  0  0  0  0  0  0  0  0  0
   10.4729   -4.0295   17.6135 C   0  0  0  0  0  0  0  0  0  0  0  0
   10.4789   -4.3641   20.9564 C   0  0  0  0  0  0  0  0  0  0  0  0
    8.7421   -5.1412   16.3650 C   0  0  0  0  0  0  0  0  0  0  0  0
   11.4353   -2.9204   17.8044 C   0  0  0  0  0  0  0  0  0  0  0  0
   11.1529   -4.3028   22.1277 C   0  0  0  0  0  0  0  0  0  0  0  0
   11.1290   -4.8502   19.8052 C   0  0  0  0  0  0  0  0  0  0  0  0
   12.4329   -4.2159   24.4224 C   0  0  0  0  0  0  0  0  0  0  0  0
    3.4740   -9.0387   16.5022 C   0  0  0  0  0  0  0  0  0  0  0  0
    6.8384   -7.9290   17.5282 N   0  0  0  0  0  0  0  0  0  0  0  0
    9.4126   -5.9853   18.4899 C   0  0  0  0  0  0  0  0  0  0  0  0
    4.2064  -10.3242   18.3302 C   0  0  0  0  0  0  0  0  0  0  0  0
    9.6599   -4.1551   16.4796 N   0  0  0  0  0  0  0  0  0  0  0  0
    7.0644   -6.4612   15.7375 N   0  0  0  0  0  0  0  0  0  0  0  0
    5.3549   -9.6322   18.3190 C   0  0  0  0  0  0  0  0  0  0  0  0
   10.3704   -4.9638   18.6510 C   0  0  0  0  0  0  0  0  0  0  0  0
    5.5935   -8.6419   17.4234 C   0  0  0  0  0  0  0  0  0  0  0  0
   13.0726   -4.6648   23.3394 O   0  0  0  0  0  0  0  0  0  0  0  0
    8.5955   -6.0705   17.3996 C   0  0  0  0  0  0  0  0  0  0  0  0
    4.6223   -8.3832   16.5030 C   0  0  0  0  0  0  0  0  0  0  0  0
   12.4690   -5.2624   19.9024 C   0  0  0  0  0  0  0  0  0  0  0  0
    3.2548   -9.9919   17.4189 C   0  0  0  0  0  0  0  0  0  0  0  0
   12.4767   -4.7393   22.1790 C   0  0  0  0  0  0  0  0  0  0  0  0
    7.8593   -5.3772   15.3569 N   0  0  0  0  0  0  0  0  0  0  0  0
    7.4412   -6.9038   16.9283 C   0  0  0  0  0  0  0  0  0  0  0  0
  1 21  4  0
  1 23  4  0
  2  5  1  0
  2 13  4  0
  2 16  4  0
  3  6  4  0
  3  7  4  0
  4 13  4  0
  4 19  4  0
  4 24  4  0
  6 23  4  0
  7 16  1  0
  7 21  4  0
  8 18  1  0
  9 20  4  0
  9 22  4  0
 10 17  1  0
 10 25  1  0
 11 16  4  0
 11 19  4  0
 12 15  4  0
 12 22  4  0
 14 24  4  0
 14 25  4  0
 15 17  4  0
 17 20  4  0
 18 23  1  0
 19 25  4  0
M  END
$$$$

 Created by Python create_sdf_string function

 25 28  0  0  0  0  0  0  0  0999 V2000
   13.1533   -5.2399   21.0682 C   0  0  0  0  0  0  0  0  0  0  0  0
   10.4729   -4.0295   17.6135 C   0  0  0  0  0  0  0  0  0  0  0  0
   10.4789   -4.3641   20.9564 C   0  0  0  0  0  0  0  0  0  0  0  0
    8.7421   -5.1412   16.3650 C   0  0  0  0  0  0  0  0  0  0  0  0
   11.4353   -2.9204   17.8044 C   0  0  0  0  0  0  0  0  0  0  0  0
   11.1529   -4.3028   22.1277 C   0  0  0  0  0  0  0  0  0  0  0  0
   11.1290   -4.8502   19.8052 C   0  0  0  0  0  0  0  0  0  0  0  0
   12.4329   -4.2159   24.4224 C   0  0  0  0  0  0  0  0  0  0  0  0
    3.4740   -9.0387   16.5022 C   0  0  0  0  0  0  0  0  0  0  0  0
    6.8384   -7.9290   17.5282 N   0  0  0  0  0  0  0  0  0  0  0  0
    9.4126   -5.9853   18.4899 C   0  0  0  0  0  0  0  0  0  0  0  0
    4.2064  -10.3242   18.3302 C   0  0  0  0  0  0  0  0  0  0  0  0
    9.6599   -4.1551   16.4796 N   0  0  0  0  0  0  0  0  0  0  0  0
    7.0644   -6.4612   15.7375 N   0  0  0  0  0  0  0  0  0  0  0  0
    5.3549   -9.6322   18.3190 C   0  0  0  0  0  0  0  0  0  0  0  0
   10.3704   -4.9638   18.6510 C   0  0  0  0  0  0  0  0  0  0  0  0
    5.5935   -8.6419   17.4234 C   0  0  0  0  0  0  0  0  0  0  0  0
   13.0726   -4.6648   23.3394 O   0  0  0  0  0  0  0  0  0  0  0  0
    8.5955   -6.0705   17.3996 C   0  0  0  0  0  0  0  0  0  0  0  0
    4.6223   -8.3832   16.5030 C   0  0  0  0  0  0  0  0  0  0  0  0
   12.4690   -5.2624   19.9024 C   0  0  0  0  0  0  0  0  0  0  0  0
    3.2548   -9.9919   17.4189 C   0  0  0  0  0  0  0  0  0  0  0  0
   12.4767   -4.7393   22.1790 C   0  0  0  0  0  0  0  0  0  0  0  0
    7.8593   -5.3772   15.3569 N   0  0  0  0  0  0  0  0  0  0  0  0
    7.4412   -6.9038   16.9283 C   0  0  0  0  0  0  0  0  0  0  0  0
  1 21  4  0
  1 23  4  0
  2  5  1  0
  2 13  4  0
  2 16  4  0
  3  6  4  0
  3  7  4  0
  4 13  4  0
  4 19  4  0
  4 24  4  0
  6 23  4  0
  7 16  1  0
  7 21  4  0
  8 18  1  0
  9 20  4  0
  9 22  4  0
 10 17  1  0
 10 25  1  0
 11 16  4  0
 11 19  4  0
 12 15  4  0
 12 22  4  0
 14 24  4  0
 14 25  4  0
 15 17  4  0
 17 20  4  0
 18 23  1  0
 19 25  4  0
M  END
$$$$

 Created by Python create_sdf_string function

 25 28  0  0  0  0  0  0  0  0999 V2000
   13.1533   -5.2399   21.0682 C   0  0  0  0  0  0  0  0  0  0  0  0
   10.4729   -4.0295   17.6135 C   0  0  0  0  0  0  0  0  0  0  0  0
   10.4789   -4.3641   20.9564 C   0  0  0  0  0  0  0  0  0  0  0  0
    8.7421   -5.1412   16.3650 C   0  0  0  0  0  0  0  0  0  0  0  0
   11.4353   -2.9204   17.8044 C   0  0  0  0  0  0  0  0  0  0  0  0
   11.1529   -4.3028   22.1277 C   0  0  0  0  0  0  0  0  0  0  0  0
   11.1290   -4.8502   19.8052 C   0  0  0  0  0  0  0  0  0  0  0  0
   12.4329   -4.2159   24.4224 C   0  0  0  0  0  0  0  0  0  0  0  0
    3.4740   -9.0387   16.5022 C   0  0  0  0  0  0  0  0  0  0  0  0
    6.8384   -7.9290   17.5282 N   0  0  0  0  0  0  0  0  0  0  0  0
    9.4126   -5.9853   18.4899 C   0  0  0  0  0  0  0  0  0  0  0  0
    4.2064  -10.3242   18.3302 C   0  0  0  0  0  0  0  0  0  0  0  0
    9.6599   -4.1551   16.4796 N   0  0  0  0  0  0  0  0  0  0  0  0
    7.0644   -6.4612   15.7375 N   0  0  0  0  0  0  0  0  0  0  0  0
    5.3549   -9.6322   18.3190 C   0  0  0  0  0  0  0  0  0  0  0  0
   10.3704   -4.9638   18.6510 C   0  0  0  0  0  0  0  0  0  0  0  0
    5.5935   -8.6419   17.4234 C   0  0  0  0  0  0  0  0  0  0  0  0
   13.0726   -4.6648   23.3394 O   0  0  0  0  0  0  0  0  0  0  0  0
    8.5955   -6.0705   17.3996 C   0  0  0  0  0  0  0  0  0  0  0  0
    4.6223   -8.3832   16.5030 C   0  0  0  0  0  0  0  0  0  0  0  0
   12.4690   -5.2624   19.9024 C   0  0  0  0  0  0  0  0  0  0  0  0
    3.2548   -9.9919   17.4189 C   0  0  0  0  0  0  0  0  0  0  0  0
   12.4767   -4.7393   22.1790 C   0  0  0  0  0  0  0  0  0  0  0  0
    7.8593   -5.3772   15.3569 N   0  0  0  0  0  0  0  0  0  0  0  0
    7.4412   -6.9038   16.9283 C   0  0  0  0  0  0  0  0  0  0  0  0
  1 21  4  0
  1 23  4  0
  2  5  1  0
  2 13  4  0
  2 16  4  0
  3  6  4  0
  3  7  4  0
  4 13  4  0
  4 19  4  0
  4 24  4  0
  6 23  4  0
  7 16  1  0
  7 21  4  0
  8 18  1  0
  9 20  4  0
  9 22  4  0
 10 17  1  0
 10 25  1  0
 11 16  4  0
 11 19  4  0
 12 15  4  0
 12 22  4  0
 14 24  4  0
 14 25  4  0
 15 17  4  0
 17 20  4  0
 18 23  1  0
 19 25  4  0
M  END
$$$$

 Created by Python create_sdf_string function

 25 28  0  0  0  0  0  0  0  0999 V2000
   13.1533   -5.2399   21.0682 C   0  0  0  0  0  0  0  0  0  0  0  0
   10.4729   -4.0295   17.6135 C   0  0  0  0  0  0  0  0  0  0  0  0
   10.4789   -4.3641   20.9564 C   0  0  0  0  0  0  0  0  0  0  0  0
    8.7421   -5.1412   16.3650 C   0  0  0  0  0  0  0  0  0  0  0  0
   11.4353   -2.9204   17.8044 C   0  0  0  0  0  0  0  0  0  0  0  0
   11.1529   -4.3028   22.1277 C   0  0  0  0  0  0  0  0  0  0  0  0
   11.1290   -4.8502   19.8052 C   0  0  0  0  0  0  0  0  0  0  0  0
   12.4329   -4.2159   24.4224 C   0  0  0  0  0  0  0  0  0  0  0  0
    3.4740   -9.0387   16.5022 C   0  0  0  0  0  0  0  0  0  0  0  0
    6.8384   -7.9290   17.5282 N   0  0  0  0  0  0  0  0  0  0  0  0
    9.4126   -5.9853   18.4899 C   0  0  0  0  0  0  0  0  0  0  0  0
    4.2064  -10.3242   18.3302 C   0  0  0  0  0  0  0  0  0  0  0  0
    9.6599   -4.1551   16.4796 N   0  0  0  0  0  0  0  0  0  0  0  0
    7.0644   -6.4612   15.7375 N   0  0  0  0  0  0  0  0  0  0  0  0
    5.3549   -9.6322   18.3190 C   0  0  0  0  0  0  0  0  0  0  0  0
   10.3704   -4.9638   18.6510 C   0  0  0  0  0  0  0  0  0  0  0  0
    5.5935   -8.6419   17.4234 C   0  0  0  0  0  0  0  0  0  0  0  0
   13.0726   -4.6648   23.3394 O   0  0  0  0  0  0  0  0  0  0  0  0
    8.5955   -6.0705   17.3996 C   0  0  0  0  0  0  0  0  0  0  0  0
    4.6223   -8.3832   16.5030 C   0  0  0  0  0  0  0  0  0  0  0  0
   12.4690   -5.2624   19.9024 C   0  0  0  0  0  0  0  0  0  0  0  0
    3.2548   -9.9919   17.4189 C   0  0  0  0  0  0  0  0  0  0  0  0
   12.4767   -4.7393   22.1790 C   0  0  0  0  0  0  0  0  0  0  0  0
    7.8593   -5.3772   15.3569 N   0  0  0  0  0  0  0  0  0  0  0  0
    7.4412   -6.9038   16.9283 C   0  0  0  0  0  0  0  0  0  0  0  0
  1 21  4  0
  1 23  4  0
  2  5  1  0
  2 13  4  0
  2 16  4  0
  3  6  4  0
  3  7  4  0
  4 13  4  0
  4 19  4  0
  4 24  4  0
  6 23  4  0
  7 16  1  0
  7 21  4  0
  8 18  1  0
  9 20  4  0
  9 22  4  0
 10 17  1  0
 10 25  1  0
 11 16  4  0
 11 19  4  0
 12 15  4  0
 12 22  4  0
 14 24  4  0
 14 25  4  0
 15 17  4  0
 17 20  4  0
 18 23  1  0
 19 25  4  0
M  END
$$$$

 Created by Python create_sdf_string function

 25 28  0  0  0  0  0  0  0  0999 V2000
   13.1533   -5.2399   21.0682 C   0  0  0  0  0  0  0  0  0  0  0  0
   10.4729   -4.0295   17.6135 C   0  0  0  0  0  0  0  0  0  0  0  0
   10.4789   -4.3641   20.9564 C   0  0  0  0  0  0  0  0  0  0  0  0
    8.7421   -5.1412   16.3650 C   0  0  0  0  0  0  0  0  0  0  0  0
   11.4353   -2.9204   17.8044 C   0  0  0  0  0  0  0  0  0  0  0  0
   11.1529   -4.3028   22.1277 C   0  0  0  0  0  0  0  0  0  0  0  0
   11.1290   -4.8502   19.8052 C   0  0  0  0  0  0  0  0  0  0  0  0
   12.4329   -4.2159   24.4224 C   0  0  0  0  0  0  0  0  0  0  0  0
    3.4740   -9.0387   16.5022 C   0  0  0  0  0  0  0  0  0  0  0  0
    6.8384   -7.9290   17.5282 N   0  0  0  0  0  0  0  0  0  0  0  0
    9.4126   -5.9853   18.4899 C   0  0  0  0  0  0  0  0  0  0  0  0
    4.2064  -10.3242   18.3302 C   0  0  0  0  0  0  0  0  0  0  0  0
    9.6599   -4.1551   16.4796 N   0  0  0  0  0  0  0  0  0  0  0  0
    7.0644   -6.4612   15.7375 N   0  0  0  0  0  0  0  0  0  0  0  0
    5.3549   -9.6322   18.3190 C   0  0  0  0  0  0  0  0  0  0  0  0
   10.3704   -4.9638   18.6510 C   0  0  0  0  0  0  0  0  0  0  0  0
    5.5935   -8.6419   17.4234 C   0  0  0  0  0  0  0  0  0  0  0  0
   13.0726   -4.6648   23.3394 O   0  0  0  0  0  0  0  0  0  0  0  0
    8.5955   -6.0705   17.3996 C   0  0  0  0  0  0  0  0  0  0  0  0
    4.6223   -8.3832   16.5030 C   0  0  0  0  0  0  0  0  0  0  0  0
   12.4690   -5.2624   19.9024 C   0  0  0  0  0  0  0  0  0  0  0  0
    3.2548   -9.9919   17.4189 C   0  0  0  0  0  0  0  0  0  0  0  0
   12.4767   -4.7393   22.1790 C   0  0  0  0  0  0  0  0  0  0  0  0
    7.8593   -5.3772   15.3569 N   0  0  0  0  0  0  0  0  0  0  0  0
    7.4412   -6.9038   16.9283 C   0  0  0  0  0  0  0  0  0  0  0  0
  1 21  4  0
  1 23  4  0
  2  5  1  0
  2 13  4  0
  2 16  4  0
  3  6  4  0
  3  7  4  0
  4 13  4  0
  4 19  4  0
  4 24  4  0
  6 23  4  0
  7 16  1  0
  7 21  4  0
  8 18  1  0
  9 20  4  0
  9 22  4  0
 10 17  1  0
 10 25  1  0
 11 16  4  0
 11 19  4  0
 12 15  4  0
 12 22  4  0
 14 24  4  0
 14 25  4  0
 15 17  4  0
 17 20  4  0
 18 23  1  0
 19 25  4  0
M  END
$$$$

 Created by Python create_sdf_string function

 25 28  0  0  0  0  0  0  0  0999 V2000
   13.1533   -5.2399   21.0682 C   0  0  0  0  0  0  0  0  0  0  0  0
   10.4729   -4.0295   17.6135 C   0  0  0  0  0  0  0  0  0  0  0  0
   10.4789   -4.3641   20.9564 C   0  0  0  0  0  0  0  0  0  0  0  0
    8.7421   -5.1412   16.3650 C   0  0  0  0  0  0  0  0  0  0  0  0
   11.4353   -2.9204   17.8044 C   0  0  0  0  0  0  0  0  0  0  0  0
   11.1529   -4.3028   22.1277 C   0  0  0  0  0  0  0  0  0  0  0  0
   11.1290   -4.8502   19.8052 C   0  0  0  0  0  0  0  0  0  0  0  0
   12.4329   -4.2159   24.4224 C   0  0  0  0  0  0  0  0  0  0  0  0
    3.4740   -9.0387   16.5022 C   0  0  0  0  0  0  0  0  0  0  0  0
    6.8384   -7.9290   17.5282 N   0  0  0  0  0  0  0  0  0  0  0  0
    9.4126   -5.9853   18.4899 C   0  0  0  0  0  0  0  0  0  0  0  0
    4.2064  -10.3242   18.3302 C   0  0  0  0  0  0  0  0  0  0  0  0
    9.6599   -4.1551   16.4796 N   0  0  0  0  0  0  0  0  0  0  0  0
    7.0644   -6.4612   15.7375 N   0  0  0  0  0  0  0  0  0  0  0  0
    5.3549   -9.6322   18.3190 C   0  0  0  0  0  0  0  0  0  0  0  0
   10.3704   -4.9638   18.6510 C   0  0  0  0  0  0  0  0  0  0  0  0
    5.5935   -8.6419   17.4234 C   0  0  0  0  0  0  0  0  0  0  0  0
   13.0726   -4.6648   23.3394 O   0  0  0  0  0  0  0  0  0  0  0  0
    8.5955   -6.0705   17.3996 C   0  0  0  0  0  0  0  0  0  0  0  0
    4.6223   -8.3832   16.5030 C   0  0  0  0  0  0  0  0  0  0  0  0
   12.4690   -5.2624   19.9024 C   0  0  0  0  0  0  0  0  0  0  0  0
    3.2548   -9.9919   17.4189 C   0  0  0  0  0  0  0  0  0  0  0  0
   12.4767   -4.7393   22.1790 C   0  0  0  0  0  0  0  0  0  0  0  0
    7.8593   -5.3772   15.3569 N   0  0  0  0  0  0  0  0  0  0  0  0
    7.4412   -6.9038   16.9283 C   0  0  0  0  0  0  0  0  0  0  0  0
  1 21  4  0
  1 23  4  0
  2  5  1  0
  2 13  4  0
  2 16  4  0
  3  6  4  0
  3  7  4  0
  4 13  4  0
  4 19  4  0
  4 24  4  0
  6 23  4  0
  7 16  1  0
  7 21  4  0
  8 18  1  0
  9 20  4  0
  9 22  4  0
 10 17  1  0
 10 25  1  0
 11 16  4  0
 11 19  4  0
 12 15  4  0
 12 22  4  0
 14 24  4  0
 14 25  4  0
 15 17  4  0
 17 20  4  0
 18 23  1  0
 19 25  4  0
M  END
$$$$

 Created by Python create_sdf_string function

 25 28  0  0  0  0  0  0  0  0999 V2000
   13.1533   -5.2399   21.0682 C   0  0  0  0  0  0  0  0  0  0  0  0
   10.4729   -4.0295   17.6135 C   0  0  0  0  0  0  0  0  0  0  0  0
   10.4789   -4.3641   20.9564 C   0  0  0  0  0  0  0  0  0  0  0  0
    8.7421   -5.1412   16.3650 C   0  0  0  0  0  0  0  0  0  0  0  0
   11.4353   -2.9204   17.8044 C   0  0  0  0  0  0  0  0  0  0  0  0
   11.1529   -4.3028   22.1277 C   0  0  0  0  0  0  0  0  0  0  0  0
   11.1290   -4.8502   19.8052 C   0  0  0  0  0  0  0  0  0  0  0  0
   12.4329   -4.2159   24.4224 C   0  0  0  0  0  0  0  0  0  0  0  0
    3.4740   -9.0387   16.5022 C   0  0  0  0  0  0  0  0  0  0  0  0
    6.8384   -7.9290   17.5282 N   0  0  0  0  0  0  0  0  0  0  0  0
    9.4126   -5.9853   18.4899 C   0  0  0  0  0  0  0  0  0  0  0  0
    4.2064  -10.3242   18.3302 C   0  0  0  0  0  0  0  0  0  0  0  0
    9.6599   -4.1551   16.4796 N   0  0  0  0  0  0  0  0  0  0  0  0
    7.0644   -6.4612   15.7375 N   0  0  0  0  0  0  0  0  0  0  0  0
    5.3549   -9.6322   18.3190 C   0  0  0  0  0  0  0  0  0  0  0  0
   10.3704   -4.9638   18.6510 C   0  0  0  0  0  0  0  0  0  0  0  0
    5.5935   -8.6419   17.4234 C   0  0  0  0  0  0  0  0  0  0  0  0
   13.0726   -4.6648   23.3394 O   0  0  0  0  0  0  0  0  0  0  0  0
    8.5955   -6.0705   17.3996 C   0  0  0  0  0  0  0  0  0  0  0  0
    4.6223   -8.3832   16.5030 C   0  0  0  0  0  0  0  0  0  0  0  0
   12.4690   -5.2624   19.9024 C   0  0  0  0  0  0  0  0  0  0  0  0
    3.2548   -9.9919   17.4189 C   0  0  0  0  0  0  0  0  0  0  0  0
   12.4767   -4.7393   22.1790 C   0  0  0  0  0  0  0  0  0  0  0  0
    7.8593   -5.3772   15.3569 N   0  0  0  0  0  0  0  0  0  0  0  0
    7.4412   -6.9038   16.9283 C   0  0  0  0  0  0  0  0  0  0  0  0
  1 21  4  0
  1 23  4  0
  2  5  1  0
  2 13  4  0
  2 16  4  0
  3  6  4  0
  3  7  4  0
  4 13  4  0
  4 19  4  0
  4 24  4  0
  6 23  4  0
  7 16  1  0
  7 21  4  0
  8 18  1  0
  9 20  4  0
  9 22  4  0
 10 17  1  0
 10 25  1  0
 11 16  4  0
 11 19  4  0
 12 15  4  0
 12 22  4  0
 14 24  4  0
 14 25  4  0
 15 17  4  0
 17 20  4  0
 18 23  1  0
 19 25  4  0
M  END
$$$$

 Created by Python create_sdf_string function

 25 28  0  0  0  0  0  0  0  0999 V2000
   13.1533   -5.2399   21.0682 C   0  0  0  0  0  0  0  0  0  0  0  0
   10.4729   -4.0295   17.6135 C   0  0  0  0  0  0  0  0  0  0  0  0
   10.4789   -4.3641   20.9564 C   0  0  0  0  0  0  0  0  0  0  0  0
    8.7421   -5.1412   16.3650 C   0  0  0  0  0  0  0  0  0  0  0  0
   11.4353   -2.9204   17.8044 C   0  0  0  0  0  0  0  0  0  0  0  0
   11.1529   -4.3028   22.1277 C   0  0  0  0  0  0  0  0  0  0  0  0
   11.1290   -4.8502   19.8052 C   0  0  0  0  0  0  0  0  0  0  0  0
   12.4329   -4.2159   24.4224 C   0  0  0  0  0  0  0  0  0  0  0  0
    3.4740   -9.0387   16.5022 C   0  0  0  0  0  0  0  0  0  0  0  0
    6.8384   -7.9290   17.5282 N   0  0  0  0  0  0  0  0  0  0  0  0
    9.4126   -5.9853   18.4899 C   0  0  0  0  0  0  0  0  0  0  0  0
    4.2064  -10.3242   18.3302 C   0  0  0  0  0  0  0  0  0  0  0  0
    9.6599   -4.1551   16.4796 N   0  0  0  0  0  0  0  0  0  0  0  0
    7.0644   -6.4612   15.7375 N   0  0  0  0  0  0  0  0  0  0  0  0
    5.3549   -9.6322   18.3190 C   0  0  0  0  0  0  0  0  0  0  0  0
   10.3704   -4.9638   18.6510 C   0  0  0  0  0  0  0  0  0  0  0  0
    5.5935   -8.6419   17.4234 C   0  0  0  0  0  0  0  0  0  0  0  0
   13.0726   -4.6648   23.3394 O   0  0  0  0  0  0  0  0  0  0  0  0
    8.5955   -6.0705   17.3996 C   0  0  0  0  0  0  0  0  0  0  0  0
    4.6223   -8.3832   16.5030 C   0  0  0  0  0  0  0  0  0  0  0  0
   12.4690   -5.2624   19.9024 C   0  0  0  0  0  0  0  0  0  0  0  0
    3.2548   -9.9919   17.4189 C   0  0  0  0  0  0  0  0  0  0  0  0
   12.4767   -4.7393   22.1790 C   0  0  0  0  0  0  0  0  0  0  0  0
    7.8593   -5.3772   15.3569 N   0  0  0  0  0  0  0  0  0  0  0  0
    7.4412   -6.9038   16.9283 C   0  0  0  0  0  0  0  0  0  0  0  0
  1 21  4  0
  1 23  4  0
  2  5  1  0
  2 13  4  0
  2 16  4  0
  3  6  4  0
  3  7  4  0
  4 13  4  0
  4 19  4  0
  4 24  4  0
  6 23  4  0
  7 16  1  0
  7 21  4  0
  8 18  1  0
  9 20  4  0
  9 22  4  0
 10 17  1  0
 10 25  1  0
 11 16  4  0
 11 19  4  0
 12 15  4  0
 12 22  4  0
 14 24  4  0
 14 25  4  0
 15 17  4  0
 17 20  4  0
 18 23  1  0
 19 25  4  0
M  END
$$$$

 Created by Python create_sdf_string function

 25 28  0  0  0  0  0  0  0  0999 V2000
   13.1533   -5.2399   21.0682 C   0  0  0  0  0  0  0  0  0  0  0  0
   10.4729   -4.0295   17.6135 C   0  0  0  0  0  0  0  0  0  0  0  0
   10.4789   -4.3641   20.9564 C   0  0  0  0  0  0  0  0  0  0  0  0
    8.7421   -5.1412   16.3650 C   0  0  0  0  0  0  0  0  0  0  0  0
   11.4353   -2.9204   17.8044 C   0  0  0  0  0  0  0  0  0  0  0  0
   11.1529   -4.3028   22.1277 C   0  0  0  0  0  0  0  0  0  0  0  0
   11.1290   -4.8502   19.8052 C   0  0  0  0  0  0  0  0  0  0  0  0
   12.4329   -4.2159   24.4224 C   0  0  0  0  0  0  0  0  0  0  0  0
    3.4740   -9.0387   16.5022 C   0  0  0  0  0  0  0  0  0  0  0  0
    6.8384   -7.9290   17.5282 N   0  0  0  0  0  0  0  0  0  0  0  0
    9.4126   -5.9853   18.4899 C   0  0  0  0  0  0  0  0  0  0  0  0
    4.2064  -10.3242   18.3302 C   0  0  0  0  0  0  0  0  0  0  0  0
    9.6599   -4.1551   16.4796 N   0  0  0  0  0  0  0  0  0  0  0  0
    7.0644   -6.4612   15.7375 N   0  0  0  0  0  0  0  0  0  0  0  0
    5.3549   -9.6322   18.3190 C   0  0  0  0  0  0  0  0  0  0  0  0
   10.3704   -4.9638   18.6510 C   0  0  0  0  0  0  0  0  0  0  0  0
    5.5935   -8.6419   17.4234 C   0  0  0  0  0  0  0  0  0  0  0  0
   13.0726   -4.6648   23.3394 O   0  0  0  0  0  0  0  0  0  0  0  0
    8.5955   -6.0705   17.3996 C   0  0  0  0  0  0  0  0  0  0  0  0
    4.6223   -8.3832   16.5030 C   0  0  0  0  0  0  0  0  0  0  0  0
   12.4690   -5.2624   19.9024 C   0  0  0  0  0  0  0  0  0  0  0  0
    3.2548   -9.9919   17.4189 C   0  0  0  0  0  0  0  0  0  0  0  0
   12.4767   -4.7393   22.1790 C   0  0  0  0  0  0  0  0  0  0  0  0
    7.8593   -5.3772   15.3569 N   0  0  0  0  0  0  0  0  0  0  0  0
    7.4412   -6.9038   16.9283 C   0  0  0  0  0  0  0  0  0  0  0  0
  1 21  4  0
  1 23  4  0
  2  5  1  0
  2 13  4  0
  2 16  4  0
  3  6  4  0
  3  7  4  0
  4 13  4  0
  4 19  4  0
  4 24  4  0
  6 23  4  0
  7 16  1  0
  7 21  4  0
  8 18  1  0
  9 20  4  0
  9 22  4  0
 10 17  1  0
 10 25  1  0
 11 16  4  0
 11 19  4  0
 12 15  4  0
 12 22  4  0
 14 24  4  0
 14 25  4  0
 15 17  4  0
 17 20  4  0
 18 23  1  0
 19 25  4  0
M  END
$$$$

 Created by Python create_sdf_string function

 25 28  0  0  0  0  0  0  0  0999 V2000
   13.1533   -5.2399   21.0682 C   0  0  0  0  0  0  0  0  0  0  0  0
   10.4729   -4.0295   17.6135 C   0  0  0  0  0  0  0  0  0  0  0  0
   10.4789   -4.3641   20.9564 C   0  0  0  0  0  0  0  0  0  0  0  0
    8.7421   -5.1412   16.3650 C   0  0  0  0  0  0  0  0  0  0  0  0
   11.4353   -2.9204   17.8044 C   0  0  0  0  0  0  0  0  0  0  0  0
   11.1529   -4.3028   22.1277 C   0  0  0  0  0  0  0  0  0  0  0  0
   11.1290   -4.8502   19.8052 C   0  0  0  0  0  0  0  0  0  0  0  0
   12.4329   -4.2159   24.4224 C   0  0  0  0  0  0  0  0  0  0  0  0
    3.4740   -9.0387   16.5022 C   0  0  0  0  0  0  0  0  0  0  0  0
    6.8384   -7.9290   17.5282 N   0  0  0  0  0  0  0  0  0  0  0  0
    9.4126   -5.9853   18.4899 C   0  0  0  0  0  0  0  0  0  0  0  0
    4.2064  -10.3242   18.3302 C   0  0  0  0  0  0  0  0  0  0  0  0
    9.6599   -4.1551   16.4796 N   0  0  0  0  0  0  0  0  0  0  0  0
    7.0644   -6.4612   15.7375 N   0  0  0  0  0  0  0  0  0  0  0  0
    5.3549   -9.6322   18.3190 C   0  0  0  0  0  0  0  0  0  0  0  0
   10.3704   -4.9638   18.6510 C   0  0  0  0  0  0  0  0  0  0  0  0
    5.5935   -8.6419   17.4234 C   0  0  0  0  0  0  0  0  0  0  0  0
   13.0726   -4.6648   23.3394 O   0  0  0  0  0  0  0  0  0  0  0  0
    8.5955   -6.0705   17.3996 C   0  0  0  0  0  0  0  0  0  0  0  0
    4.6223   -8.3832   16.5030 C   0  0  0  0  0  0  0  0  0  0  0  0
   12.4690   -5.2624   19.9024 C   0  0  0  0  0  0  0  0  0  0  0  0
    3.2548   -9.9919   17.4189 C   0  0  0  0  0  0  0  0  0  0  0  0
   12.4767   -4.7393   22.1790 C   0  0  0  0  0  0  0  0  0  0  0  0
    7.8593   -5.3772   15.3569 N   0  0  0  0  0  0  0  0  0  0  0  0
    7.4412   -6.9038   16.9283 C   0  0  0  0  0  0  0  0  0  0  0  0
  1 21  4  0
  1 23  4  0
  2  5  1  0
  2 13  4  0
  2 16  4  0
  3  6  4  0
  3  7  4  0
  4 13  4  0
  4 19  4  0
  4 24  4  0
  6 23  4  0
  7 16  1  0
  7 21  4  0
  8 18  1  0
  9 20  4  0
  9 22  4  0
 10 17  1  0
 10 25  1  0
 11 16  4  0
 11 19  4  0
 12 15  4  0
 12 22  4  0
 14 24  4  0
 14 25  4  0
 15 17  4  0
 17 20  4  0
 18 23  1  0
 19 25  4  0
M  END
$$$$

 Created by Python create_sdf_string function

 25 28  0  0  0  0  0  0  0  0999 V2000
   13.1533   -5.2399   21.0682 C   0  0  0  0  0  0  0  0  0  0  0  0
   10.4729   -4.0295   17.6135 C   0  0  0  0  0  0  0  0  0  0  0  0
   10.4789   -4.3641   20.9564 C   0  0  0  0  0  0  0  0  0  0  0  0
    8.7421   -5.1412   16.3650 C   0  0  0  0  0  0  0  0  0  0  0  0
   11.4353   -2.9204   17.8044 C   0  0  0  0  0  0  0  0  0  0  0  0
   11.1529   -4.3028   22.1277 C   0  0  0  0  0  0  0  0  0  0  0  0
   11.1290   -4.8502   19.8052 C   0  0  0  0  0  0  0  0  0  0  0  0
   12.4329   -4.2159   24.4224 C   0  0  0  0  0  0  0  0  0  0  0  0
    3.4740   -9.0387   16.5022 C   0  0  0  0  0  0  0  0  0  0  0  0
    6.8384   -7.9290   17.5282 N   0  0  0  0  0  0  0  0  0  0  0  0
    9.4126   -5.9853   18.4899 C   0  0  0  0  0  0  0  0  0  0  0  0
    4.2064  -10.3242   18.3302 C   0  0  0  0  0  0  0  0  0  0  0  0
    9.6599   -4.1551   16.4796 N   0  0  0  0  0  0  0  0  0  0  0  0
    7.0644   -6.4612   15.7375 N   0  0  0  0  0  0  0  0  0  0  0  0
    5.3549   -9.6322   18.3190 C   0  0  0  0  0  0  0  0  0  0  0  0
   10.3704   -4.9638   18.6510 C   0  0  0  0  0  0  0  0  0  0  0  0
    5.5935   -8.6419   17.4234 C   0  0  0  0  0  0  0  0  0  0  0  0
   13.0726   -4.6648   23.3394 O   0  0  0  0  0  0  0  0  0  0  0  0
    8.5955   -6.0705   17.3996 C   0  0  0  0  0  0  0  0  0  0  0  0
    4.6223   -8.3832   16.5030 C   0  0  0  0  0  0  0  0  0  0  0  0
   12.4690   -5.2624   19.9024 C   0  0  0  0  0  0  0  0  0  0  0  0
    3.2548   -9.9919   17.4189 C   0  0  0  0  0  0  0  0  0  0  0  0
   12.4767   -4.7393   22.1790 C   0  0  0  0  0  0  0  0  0  0  0  0
    7.8593   -5.3772   15.3569 N   0  0  0  0  0  0  0  0  0  0  0  0
    7.4412   -6.9038   16.9283 C   0  0  0  0  0  0  0  0  0  0  0  0
  1 21  4  0
  1 23  4  0
  2  5  1  0
  2 13  4  0
  2 16  4  0
  3  6  4  0
  3  7  4  0
  4 13  4  0
  4 19  4  0
  4 24  4  0
  6 23  4  0
  7 16  1  0
  7 21  4  0
  8 18  1  0
  9 20  4  0
  9 22  4  0
 10 17  1  0
 10 25  1  0
 11 16  4  0
 11 19  4  0
 12 15  4  0
 12 22  4  0
 14 24  4  0
 14 25  4  0
 15 17  4  0
 17 20  4  0
 18 23  1  0
 19 25  4  0
M  END
$$$$

 Created by Python create_sdf_string function

 25 28  0  0  0  0  0  0  0  0999 V2000
   13.1533   -5.2399   21.0682 C   0  0  0  0  0  0  0  0  0  0  0  0
   10.4729   -4.0295   17.6135 C   0  0  0  0  0  0  0  0  0  0  0  0
   10.4789   -4.3641   20.9564 C   0  0  0  0  0  0  0  0  0  0  0  0
    8.7421   -5.1412   16.3650 C   0  0  0  0  0  0  0  0  0  0  0  0
   11.4353   -2.9204   17.8044 C   0  0  0  0  0  0  0  0  0  0  0  0
   11.1529   -4.3028   22.1277 C   0  0  0  0  0  0  0  0  0  0  0  0
   11.1290   -4.8502   19.8052 C   0  0  0  0  0  0  0  0  0  0  0  0
   12.4329   -4.2159   24.4224 C   0  0  0  0  0  0  0  0  0  0  0  0
    3.4740   -9.0387   16.5022 C   0  0  0  0  0  0  0  0  0  0  0  0
    6.8384   -7.9290   17.5282 N   0  0  0  0  0  0  0  0  0  0  0  0
    9.4126   -5.9853   18.4899 C   0  0  0  0  0  0  0  0  0  0  0  0
    4.2064  -10.3242   18.3302 C   0  0  0  0  0  0  0  0  0  0  0  0
    9.6599   -4.1551   16.4796 N   0  0  0  0  0  0  0  0  0  0  0  0
    7.0644   -6.4612   15.7375 N   0  0  0  0  0  0  0  0  0  0  0  0
    5.3549   -9.6322   18.3190 C   0  0  0  0  0  0  0  0  0  0  0  0
   10.3704   -4.9638   18.6510 C   0  0  0  0  0  0  0  0  0  0  0  0
    5.5935   -8.6419   17.4234 C   0  0  0  0  0  0  0  0  0  0  0  0
   13.0726   -4.6648   23.3394 O   0  0  0  0  0  0  0  0  0  0  0  0
    8.5955   -6.0705   17.3996 C   0  0  0  0  0  0  0  0  0  0  0  0
    4.6223   -8.3832   16.5030 C   0  0  0  0  0  0  0  0  0  0  0  0
   12.4690   -5.2624   19.9024 C   0  0  0  0  0  0  0  0  0  0  0  0
    3.2548   -9.9919   17.4189 C   0  0  0  0  0  0  0  0  0  0  0  0
   12.4767   -4.7393   22.1790 C   0  0  0  0  0  0  0  0  0  0  0  0
    7.8593   -5.3772   15.3569 N   0  0  0  0  0  0  0  0  0  0  0  0
    7.4412   -6.9038   16.9283 C   0  0  0  0  0  0  0  0  0  0  0  0
  1 21  4  0
  1 23  4  0
  2  5  1  0
  2 13  4  0
  2 16  4  0
  3  6  4  0
  3  7  4  0
  4 13  4  0
  4 19  4  0
  4 24  4  0
  6 23  4  0
  7 16  1  0
  7 21  4  0
  8 18  1  0
  9 20  4  0
  9 22  4  0
 10 17  1  0
 10 25  1  0
 11 16  4  0
 11 19  4  0
 12 15  4  0
 12 22  4  0
 14 24  4  0
 14 25  4  0
 15 17  4  0
 17 20  4  0
 18 23  1  0
 19 25  4  0
M  END
$$$$

 Created by Python create_sdf_string function

 25 28  0  0  0  0  0  0  0  0999 V2000
   13.1533   -5.2399   21.0682 C   0  0  0  0  0  0  0  0  0  0  0  0
   10.4729   -4.0295   17.6135 C   0  0  0  0  0  0  0  0  0  0  0  0
   10.4789   -4.3641   20.9564 C   0  0  0  0  0  0  0  0  0  0  0  0
    8.7421   -5.1412   16.3650 C   0  0  0  0  0  0  0  0  0  0  0  0
   11.4353   -2.9204   17.8044 C   0  0  0  0  0  0  0  0  0  0  0  0
   11.1529   -4.3028   22.1277 C   0  0  0  0  0  0  0  0  0  0  0  0
   11.1290   -4.8502   19.8052 C   0  0  0  0  0  0  0  0  0  0  0  0
   12.4329   -4.2159   24.4224 C   0  0  0  0  0  0  0  0  0  0  0  0
    3.4740   -9.0387   16.5022 C   0  0  0  0  0  0  0  0  0  0  0  0
    6.8384   -7.9290   17.5282 N   0  0  0  0  0  0  0  0  0  0  0  0
    9.4126   -5.9853   18.4899 C   0  0  0  0  0  0  0  0  0  0  0  0
    4.2064  -10.3242   18.3302 C   0  0  0  0  0  0  0  0  0  0  0  0
    9.6599   -4.1551   16.4796 N   0  0  0  0  0  0  0  0  0  0  0  0
    7.0644   -6.4612   15.7375 N   0  0  0  0  0  0  0  0  0  0  0  0
    5.3549   -9.6322   18.3190 C   0  0  0  0  0  0  0  0  0  0  0  0
   10.3704   -4.9638   18.6510 C   0  0  0  0  0  0  0  0  0  0  0  0
    5.5935   -8.6419   17.4234 C   0  0  0  0  0  0  0  0  0  0  0  0
   13.0726   -4.6648   23.3394 O   0  0  0  0  0  0  0  0  0  0  0  0
    8.5955   -6.0705   17.3996 C   0  0  0  0  0  0  0  0  0  0  0  0
    4.6223   -8.3832   16.5030 C   0  0  0  0  0  0  0  0  0  0  0  0
   12.4690   -5.2624   19.9024 C   0  0  0  0  0  0  0  0  0  0  0  0
    3.2548   -9.9919   17.4189 C   0  0  0  0  0  0  0  0  0  0  0  0
   12.4767   -4.7393   22.1790 C   0  0  0  0  0  0  0  0  0  0  0  0
    7.8593   -5.3772   15.3569 N   0  0  0  0  0  0  0  0  0  0  0  0
    7.4412   -6.9038   16.9283 C   0  0  0  0  0  0  0  0  0  0  0  0
  1 21  4  0
  1 23  4  0
  2  5  1  0
  2 13  4  0
  2 16  4  0
  3  6  4  0
  3  7  4  0
  4 13  4  0
  4 19  4  0
  4 24  4  0
  6 23  4  0
  7 16  1  0
  7 21  4  0
  8 18  1  0
  9 20  4  0
  9 22  4  0
 10 17  1  0
 10 25  1  0
 11 16  4  0
 11 19  4  0
 12 15  4  0
 12 22  4  0
 14 24  4  0
 14 25  4  0
 15 17  4  0
 17 20  4  0
 18 23  1  0
 19 25  4  0
M  END
$$$$

 Created by Python create_sdf_string function

 25 28  0  0  0  0  0  0  0  0999 V2000
   13.1533   -5.2399   21.0682 C   0  0  0  0  0  0  0  0  0  0  0  0
   10.4729   -4.0295   17.6135 C   0  0  0  0  0  0  0  0  0  0  0  0
   10.4789   -4.3641   20.9564 C   0  0  0  0  0  0  0  0  0  0  0  0
    8.7421   -5.1412   16.3650 C   0  0  0  0  0  0  0  0  0  0  0  0
   11.4353   -2.9204   17.8044 C   0  0  0  0  0  0  0  0  0  0  0  0
   11.1529   -4.3028   22.1277 C   0  0  0  0  0  0  0  0  0  0  0  0
   11.1290   -4.8502   19.8052 C   0  0  0  0  0  0  0  0  0  0  0  0
   12.4329   -4.2159   24.4224 C   0  0  0  0  0  0  0  0  0  0  0  0
    3.4740   -9.0387   16.5022 C   0  0  0  0  0  0  0  0  0  0  0  0
    6.8384   -7.9290   17.5282 N   0  0  0  0  0  0  0  0  0  0  0  0
    9.4126   -5.9853   18.4899 C   0  0  0  0  0  0  0  0  0  0  0  0
    4.2064  -10.3242   18.3302 C   0  0  0  0  0  0  0  0  0  0  0  0
    9.6599   -4.1551   16.4796 N   0  0  0  0  0  0  0  0  0  0  0  0
    7.0644   -6.4612   15.7375 N   0  0  0  0  0  0  0  0  0  0  0  0
    5.3549   -9.6322   18.3190 C   0  0  0  0  0  0  0  0  0  0  0  0
   10.3704   -4.9638   18.6510 C   0  0  0  0  0  0  0  0  0  0  0  0
    5.5935   -8.6419   17.4234 C   0  0  0  0  0  0  0  0  0  0  0  0
   13.0726   -4.6648   23.3394 O   0  0  0  0  0  0  0  0  0  0  0  0
    8.5955   -6.0705   17.3996 C   0  0  0  0  0  0  0  0  0  0  0  0
    4.6223   -8.3832   16.5030 C   0  0  0  0  0  0  0  0  0  0  0  0
   12.4690   -5.2624   19.9024 C   0  0  0  0  0  0  0  0  0  0  0  0
    3.2548   -9.9919   17.4189 C   0  0  0  0  0  0  0  0  0  0  0  0
   12.4767   -4.7393   22.1790 C   0  0  0  0  0  0  0  0  0  0  0  0
    7.8593   -5.3772   15.3569 N   0  0  0  0  0  0  0  0  0  0  0  0
    7.4412   -6.9038   16.9283 C   0  0  0  0  0  0  0  0  0  0  0  0
  1 21  4  0
  1 23  4  0
  2  5  1  0
  2 13  4  0
  2 16  4  0
  3  6  4  0
  3  7  4  0
  4 13  4  0
  4 19  4  0
  4 24  4  0
  6 23  4  0
  7 16  1  0
  7 21  4  0
  8 18  1  0
  9 20  4  0
  9 22  4  0
 10 17  1  0
 10 25  1  0
 11 16  4  0
 11 19  4  0
 12 15  4  0
 12 22  4  0
 14 24  4  0
 14 25  4  0
 15 17  4  0
 17 20  4  0
 18 23  1  0
 19 25  4  0
M  END
$$$$

 Created by Python create_sdf_string function

 25 28  0  0  0  0  0  0  0  0999 V2000
   13.1533   -5.2399   21.0682 C   0  0  0  0  0  0  0  0  0  0  0  0
   10.4729   -4.0295   17.6135 C   0  0  0  0  0  0  0  0  0  0  0  0
   10.4789   -4.3641   20.9564 C   0  0  0  0  0  0  0  0  0  0  0  0
    8.7421   -5.1412   16.3650 C   0  0  0  0  0  0  0  0  0  0  0  0
   11.4353   -2.9204   17.8044 C   0  0  0  0  0  0  0  0  0  0  0  0
   11.1529   -4.3028   22.1277 C   0  0  0  0  0  0  0  0  0  0  0  0
   11.1290   -4.8502   19.8052 C   0  0  0  0  0  0  0  0  0  0  0  0
   12.4329   -4.2159   24.4224 C   0  0  0  0  0  0  0  0  0  0  0  0
    3.4740   -9.0387   16.5022 C   0  0  0  0  0  0  0  0  0  0  0  0
    6.8384   -7.9290   17.5282 N   0  0  0  0  0  0  0  0  0  0  0  0
    9.4126   -5.9853   18.4899 C   0  0  0  0  0  0  0  0  0  0  0  0
    4.2064  -10.3242   18.3302 C   0  0  0  0  0  0  0  0  0  0  0  0
    9.6599   -4.1551   16.4796 N   0  0  0  0  0  0  0  0  0  0  0  0
    7.0644   -6.4612   15.7375 N   0  0  0  0  0  0  0  0  0  0  0  0
    5.3549   -9.6322   18.3190 C   0  0  0  0  0  0  0  0  0  0  0  0
   10.3704   -4.9638   18.6510 C   0  0  0  0  0  0  0  0  0  0  0  0
    5.5935   -8.6419   17.4234 C   0  0  0  0  0  0  0  0  0  0  0  0
   13.0726   -4.6648   23.3394 O   0  0  0  0  0  0  0  0  0  0  0  0
    8.5955   -6.0705   17.3996 C   0  0  0  0  0  0  0  0  0  0  0  0
    4.6223   -8.3832   16.5030 C   0  0  0  0  0  0  0  0  0  0  0  0
   12.4690   -5.2624   19.9024 C   0  0  0  0  0  0  0  0  0  0  0  0
    3.2548   -9.9919   17.4189 C   0  0  0  0  0  0  0  0  0  0  0  0
   12.4767   -4.7393   22.1790 C   0  0  0  0  0  0  0  0  0  0  0  0
    7.8593   -5.3772   15.3569 N   0  0  0  0  0  0  0  0  0  0  0  0
    7.4412   -6.9038   16.9283 C   0  0  0  0  0  0  0  0  0  0  0  0
  1 21  4  0
  1 23  4  0
  2  5  1  0
  2 13  4  0
  2 16  4  0
  3  6  4  0
  3  7  4  0
  4 13  4  0
  4 19  4  0
  4 24  4  0
  6 23  4  0
  7 16  1  0
  7 21  4  0
  8 18  1  0
  9 20  4  0
  9 22  4  0
 10 17  1  0
 10 25  1  0
 11 16  4  0
 11 19  4  0
 12 15  4  0
 12 22  4  0
 14 24  4  0
 14 25  4  0
 15 17  4  0
 17 20  4  0
 18 23  1  0
 19 25  4  0
M  END
$$$$

 Created by Python create_sdf_string function

 25 28  0  0  0  0  0  0  0  0999 V2000
   13.1533   -5.2399   21.0682 C   0  0  0  0  0  0  0  0  0  0  0  0
   10.4729   -4.0295   17.6135 C   0  0  0  0  0  0  0  0  0  0  0  0
   10.4789   -4.3641   20.9564 C   0  0  0  0  0  0  0  0  0  0  0  0
    8.7421   -5.1412   16.3650 C   0  0  0  0  0  0  0  0  0  0  0  0
   11.4353   -2.9204   17.8044 C   0  0  0  0  0  0  0  0  0  0  0  0
   11.1529   -4.3028   22.1277 C   0  0  0  0  0  0  0  0  0  0  0  0
   11.1290   -4.8502   19.8052 C   0  0  0  0  0  0  0  0  0  0  0  0
   12.4329   -4.2159   24.4224 C   0  0  0  0  0  0  0  0  0  0  0  0
    3.4740   -9.0387   16.5022 C   0  0  0  0  0  0  0  0  0  0  0  0
    6.8384   -7.9290   17.5282 N   0  0  0  0  0  0  0  0  0  0  0  0
    9.4126   -5.9853   18.4899 C   0  0  0  0  0  0  0  0  0  0  0  0
    4.2064  -10.3242   18.3302 C   0  0  0  0  0  0  0  0  0  0  0  0
    9.6599   -4.1551   16.4796 N   0  0  0  0  0  0  0  0  0  0  0  0
    7.0644   -6.4612   15.7375 N   0  0  0  0  0  0  0  0  0  0  0  0
    5.3549   -9.6322   18.3190 C   0  0  0  0  0  0  0  0  0  0  0  0
   10.3704   -4.9638   18.6510 C   0  0  0  0  0  0  0  0  0  0  0  0
    5.5935   -8.6419   17.4234 C   0  0  0  0  0  0  0  0  0  0  0  0
   13.0726   -4.6648   23.3394 O   0  0  0  0  0  0  0  0  0  0  0  0
    8.5955   -6.0705   17.3996 C   0  0  0  0  0  0  0  0  0  0  0  0
    4.6223   -8.3832   16.5030 C   0  0  0  0  0  0  0  0  0  0  0  0
   12.4690   -5.2624   19.9024 C   0  0  0  0  0  0  0  0  0  0  0  0
    3.2548   -9.9919   17.4189 C   0  0  0  0  0  0  0  0  0  0  0  0
   12.4767   -4.7393   22.1790 C   0  0  0  0  0  0  0  0  0  0  0  0
    7.8593   -5.3772   15.3569 N   0  0  0  0  0  0  0  0  0  0  0  0
    7.4412   -6.9038   16.9283 C   0  0  0  0  0  0  0  0  0  0  0  0
  1 21  4  0
  1 23  4  0
  2  5  1  0
  2 13  4  0
  2 16  4  0
  3  6  4  0
  3  7  4  0
  4 13  4  0
  4 19  4  0
  4 24  4  0
  6 23  4  0
  7 16  1  0
  7 21  4  0
  8 18  1  0
  9 20  4  0
  9 22  4  0
 10 17  1  0
 10 25  1  0
 11 16  4  0
 11 19  4  0
 12 15  4  0
 12 22  4  0
 14 24  4  0
 14 25  4  0
 15 17  4  0
 17 20  4  0
 18 23  1  0
 19 25  4  0
M  END
$$$$

 Created by Python create_sdf_string function

 25 28  0  0  0  0  0  0  0  0999 V2000
   13.1533   -5.2399   21.0682 C   0  0  0  0  0  0  0  0  0  0  0  0
   10.4729   -4.0295   17.6135 C   0  0  0  0  0  0  0  0  0  0  0  0
   10.4789   -4.3641   20.9564 C   0  0  0  0  0  0  0  0  0  0  0  0
    8.7421   -5.1412   16.3650 C   0  0  0  0  0  0  0  0  0  0  0  0
   11.4353   -2.9204   17.8044 C   0  0  0  0  0  0  0  0  0  0  0  0
   11.1529   -4.3028   22.1277 C   0  0  0  0  0  0  0  0  0  0  0  0
   11.1290   -4.8502   19.8052 C   0  0  0  0  0  0  0  0  0  0  0  0
   12.4329   -4.2159   24.4224 C   0  0  0  0  0  0  0  0  0  0  0  0
    3.4740   -9.0387   16.5022 C   0  0  0  0  0  0  0  0  0  0  0  0
    6.8384   -7.9290   17.5282 N   0  0  0  0  0  0  0  0  0  0  0  0
    9.4126   -5.9853   18.4899 C   0  0  0  0  0  0  0  0  0  0  0  0
    4.2064  -10.3242   18.3302 C   0  0  0  0  0  0  0  0  0  0  0  0
    9.6599   -4.1551   16.4796 N   0  0  0  0  0  0  0  0  0  0  0  0
    7.0644   -6.4612   15.7375 N   0  0  0  0  0  0  0  0  0  0  0  0
    5.3549   -9.6322   18.3190 C   0  0  0  0  0  0  0  0  0  0  0  0
   10.3704   -4.9638   18.6510 C   0  0  0  0  0  0  0  0  0  0  0  0
    5.5935   -8.6419   17.4234 C   0  0  0  0  0  0  0  0  0  0  0  0
   13.0726   -4.6648   23.3394 O   0  0  0  0  0  0  0  0  0  0  0  0
    8.5955   -6.0705   17.3996 C   0  0  0  0  0  0  0  0  0  0  0  0
    4.6223   -8.3832   16.5030 C   0  0  0  0  0  0  0  0  0  0  0  0
   12.4690   -5.2624   19.9024 C   0  0  0  0  0  0  0  0  0  0  0  0
    3.2548   -9.9919   17.4189 C   0  0  0  0  0  0  0  0  0  0  0  0
   12.4767   -4.7393   22.1790 C   0  0  0  0  0  0  0  0  0  0  0  0
    7.8593   -5.3772   15.3569 N   0  0  0  0  0  0  0  0  0  0  0  0
    7.4412   -6.9038   16.9283 C   0  0  0  0  0  0  0  0  0  0  0  0
  1 21  4  0
  1 23  4  0
  2  5  1  0
  2 13  4  0
  2 16  4  0
  3  6  4  0
  3  7  4  0
  4 13  4  0
  4 19  4  0
  4 24  4  0
  6 23  4  0
  7 16  1  0
  7 21  4  0
  8 18  1  0
  9 20  4  0
  9 22  4  0
 10 17  1  0
 10 25  1  0
 11 16  4  0
 11 19  4  0
 12 15  4  0
 12 22  4  0
 14 24  4  0
 14 25  4  0
 15 17  4  0
 17 20  4  0
 18 23  1  0
 19 25  4  0
M  END
$$$$

 Created by Python create_sdf_string function

 25 28  0  0  0  0  0  0  0  0999 V2000
   13.1533   -5.2399   21.0682 C   0  0  0  0  0  0  0  0  0  0  0  0
   10.4729   -4.0295   17.6135 C   0  0  0  0  0  0  0  0  0  0  0  0
   10.4789   -4.3641   20.9564 C   0  0  0  0  0  0  0  0  0  0  0  0
    8.7421   -5.1412   16.3650 C   0  0  0  0  0  0  0  0  0  0  0  0
   11.4353   -2.9204   17.8044 C   0  0  0  0  0  0  0  0  0  0  0  0
   11.1529   -4.3028   22.1277 C   0  0  0  0  0  0  0  0  0  0  0  0
   11.1290   -4.8502   19.8052 C   0  0  0  0  0  0  0  0  0  0  0  0
   12.4329   -4.2159   24.4224 C   0  0  0  0  0  0  0  0  0  0  0  0
    3.4740   -9.0387   16.5022 C   0  0  0  0  0  0  0  0  0  0  0  0
    6.8384   -7.9290   17.5282 N   0  0  0  0  0  0  0  0  0  0  0  0
    9.4126   -5.9853   18.4899 C   0  0  0  0  0  0  0  0  0  0  0  0
    4.2064  -10.3242   18.3302 C   0  0  0  0  0  0  0  0  0  0  0  0
    9.6599   -4.1551   16.4796 N   0  0  0  0  0  0  0  0  0  0  0  0
    7.0644   -6.4612   15.7375 N   0  0  0  0  0  0  0  0  0  0  0  0
    5.3549   -9.6322   18.3190 C   0  0  0  0  0  0  0  0  0  0  0  0
   10.3704   -4.9638   18.6510 C   0  0  0  0  0  0  0  0  0  0  0  0
    5.5935   -8.6419   17.4234 C   0  0  0  0  0  0  0  0  0  0  0  0
   13.0726   -4.6648   23.3394 O   0  0  0  0  0  0  0  0  0  0  0  0
    8.5955   -6.0705   17.3996 C   0  0  0  0  0  0  0  0  0  0  0  0
    4.6223   -8.3832   16.5030 C   0  0  0  0  0  0  0  0  0  0  0  0
   12.4690   -5.2624   19.9024 C   0  0  0  0  0  0  0  0  0  0  0  0
    3.2548   -9.9919   17.4189 C   0  0  0  0  0  0  0  0  0  0  0  0
   12.4767   -4.7393   22.1790 C   0  0  0  0  0  0  0  0  0  0  0  0
    7.8593   -5.3772   15.3569 N   0  0  0  0  0  0  0  0  0  0  0  0
    7.4412   -6.9038   16.9283 C   0  0  0  0  0  0  0  0  0  0  0  0
  1 21  4  0
  1 23  4  0
  2  5  1  0
  2 13  4  0
  2 16  4  0
  3  6  4  0
  3  7  4  0
  4 13  4  0
  4 19  4  0
  4 24  4  0
  6 23  4  0
  7 16  1  0
  7 21  4  0
  8 18  1  0
  9 20  4  0
  9 22  4  0
 10 17  1  0
 10 25  1  0
 11 16  4  0
 11 19  4  0
 12 15  4  0
 12 22  4  0
 14 24  4  0
 14 25  4  0
 15 17  4  0
 17 20  4  0
 18 23  1  0
 19 25  4  0
M  END
$$$$

 Created by Python create_sdf_string function

 25 28  0  0  0  0  0  0  0  0999 V2000
   13.1533   -5.2399   21.0682 C   0  0  0  0  0  0  0  0  0  0  0  0
   10.4729   -4.0295   17.6135 C   0  0  0  0  0  0  0  0  0  0  0  0
   10.4789   -4.3641   20.9564 C   0  0  0  0  0  0  0  0  0  0  0  0
    8.7421   -5.1412   16.3650 C   0  0  0  0  0  0  0  0  0  0  0  0
   11.4353   -2.9204   17.8044 C   0  0  0  0  0  0  0  0  0  0  0  0
   11.1529   -4.3028   22.1277 C   0  0  0  0  0  0  0  0  0  0  0  0
   11.1290   -4.8502   19.8052 C   0  0  0  0  0  0  0  0  0  0  0  0
   12.4329   -4.2159   24.4224 C   0  0  0  0  0  0  0  0  0  0  0  0
    3.4740   -9.0387   16.5022 C   0  0  0  0  0  0  0  0  0  0  0  0
    6.8384   -7.9290   17.5282 N   0  0  0  0  0  0  0  0  0  0  0  0
    9.4126   -5.9853   18.4899 C   0  0  0  0  0  0  0  0  0  0  0  0
    4.2064  -10.3242   18.3302 C   0  0  0  0  0  0  0  0  0  0  0  0
    9.6599   -4.1551   16.4796 N   0  0  0  0  0  0  0  0  0  0  0  0
    7.0644   -6.4612   15.7375 N   0  0  0  0  0  0  0  0  0  0  0  0
    5.3549   -9.6322   18.3190 C   0  0  0  0  0  0  0  0  0  0  0  0
   10.3704   -4.9638   18.6510 C   0  0  0  0  0  0  0  0  0  0  0  0
    5.5935   -8.6419   17.4234 C   0  0  0  0  0  0  0  0  0  0  0  0
   13.0726   -4.6648   23.3394 O   0  0  0  0  0  0  0  0  0  0  0  0
    8.5955   -6.0705   17.3996 C   0  0  0  0  0  0  0  0  0  0  0  0
    4.6223   -8.3832   16.5030 C   0  0  0  0  0  0  0  0  0  0  0  0
   12.4690   -5.2624   19.9024 C   0  0  0  0  0  0  0  0  0  0  0  0
    3.2548   -9.9919   17.4189 C   0  0  0  0  0  0  0  0  0  0  0  0
   12.4767   -4.7393   22.1790 C   0  0  0  0  0  0  0  0  0  0  0  0
    7.8593   -5.3772   15.3569 N   0  0  0  0  0  0  0  0  0  0  0  0
    7.4412   -6.9038   16.9283 C   0  0  0  0  0  0  0  0  0  0  0  0
  1 21  4  0
  1 23  4  0
  2  5  1  0
  2 13  4  0
  2 16  4  0
  3  6  4  0
  3  7  4  0
  4 13  4  0
  4 19  4  0
  4 24  4  0
  6 23  4  0
  7 16  1  0
  7 21  4  0
  8 18  1  0
  9 20  4  0
  9 22  4  0
 10 17  1  0
 10 25  1  0
 11 16  4  0
 11 19  4  0
 12 15  4  0
 12 22  4  0
 14 24  4  0
 14 25  4  0
 15 17  4  0
 17 20  4  0
 18 23  1  0
 19 25  4  0
M  END
$$$$

 Created by Python create_sdf_string function

 25 28  0  0  0  0  0  0  0  0999 V2000
   13.1533   -5.2399   21.0682 C   0  0  0  0  0  0  0  0  0  0  0  0
   10.4729   -4.0295   17.6135 C   0  0  0  0  0  0  0  0  0  0  0  0
   10.4789   -4.3641   20.9564 C   0  0  0  0  0  0  0  0  0  0  0  0
    8.7421   -5.1412   16.3650 C   0  0  0  0  0  0  0  0  0  0  0  0
   11.4353   -2.9204   17.8044 C   0  0  0  0  0  0  0  0  0  0  0  0
   11.1529   -4.3028   22.1277 C   0  0  0  0  0  0  0  0  0  0  0  0
   11.1290   -4.8502   19.8052 C   0  0  0  0  0  0  0  0  0  0  0  0
   12.4329   -4.2159   24.4224 C   0  0  0  0  0  0  0  0  0  0  0  0
    3.4740   -9.0387   16.5022 C   0  0  0  0  0  0  0  0  0  0  0  0
    6.8384   -7.9290   17.5282 N   0  0  0  0  0  0  0  0  0  0  0  0
    9.4126   -5.9853   18.4899 C   0  0  0  0  0  0  0  0  0  0  0  0
    4.2064  -10.3242   18.3302 C   0  0  0  0  0  0  0  0  0  0  0  0
    9.6599   -4.1551   16.4796 N   0  0  0  0  0  0  0  0  0  0  0  0
    7.0644   -6.4612   15.7375 N   0  0  0  0  0  0  0  0  0  0  0  0
    5.3549   -9.6322   18.3190 C   0  0  0  0  0  0  0  0  0  0  0  0
   10.3704   -4.9638   18.6510 C   0  0  0  0  0  0  0  0  0  0  0  0
    5.5935   -8.6419   17.4234 C   0  0  0  0  0  0  0  0  0  0  0  0
   13.0726   -4.6648   23.3394 O   0  0  0  0  0  0  0  0  0  0  0  0
    8.5955   -6.0705   17.3996 C   0  0  0  0  0  0  0  0  0  0  0  0
    4.6223   -8.3832   16.5030 C   0  0  0  0  0  0  0  0  0  0  0  0
   12.4690   -5.2624   19.9024 C   0  0  0  0  0  0  0  0  0  0  0  0
    3.2548   -9.9919   17.4189 C   0  0  0  0  0  0  0  0  0  0  0  0
   12.4767   -4.7393   22.1790 C   0  0  0  0  0  0  0  0  0  0  0  0
    7.8593   -5.3772   15.3569 N   0  0  0  0  0  0  0  0  0  0  0  0
    7.4412   -6.9038   16.9283 C   0  0  0  0  0  0  0  0  0  0  0  0
  1 21  4  0
  1 23  4  0
  2  5  1  0
  2 13  4  0
  2 16  4  0
  3  6  4  0
  3  7  4  0
  4 13  4  0
  4 19  4  0
  4 24  4  0
  6 23  4  0
  7 16  1  0
  7 21  4  0
  8 18  1  0
  9 20  4  0
  9 22  4  0
 10 17  1  0
 10 25  1  0
 11 16  4  0
 11 19  4  0
 12 15  4  0
 12 22  4  0
 14 24  4  0
 14 25  4  0
 15 17  4  0
 17 20  4  0
 18 23  1  0
 19 25  4  0
M  END
$$$$

 Created by Python create_sdf_string function

 25 28  0  0  0  0  0  0  0  0999 V2000
   13.1533   -5.2399   21.0682 C   0  0  0  0  0  0  0  0  0  0  0  0
   10.4729   -4.0295   17.6135 C   0  0  0  0  0  0  0  0  0  0  0  0
   10.4789   -4.3641   20.9564 C   0  0  0  0  0  0  0  0  0  0  0  0
    8.7421   -5.1412   16.3650 C   0  0  0  0  0  0  0  0  0  0  0  0
   11.4353   -2.9204   17.8044 C   0  0  0  0  0  0  0  0  0  0  0  0
   11.1529   -4.3028   22.1277 C   0  0  0  0  0  0  0  0  0  0  0  0
   11.1290   -4.8502   19.8052 C   0  0  0  0  0  0  0  0  0  0  0  0
   12.4329   -4.2159   24.4224 C   0  0  0  0  0  0  0  0  0  0  0  0
    3.4740   -9.0387   16.5022 C   0  0  0  0  0  0  0  0  0  0  0  0
    6.8384   -7.9290   17.5282 N   0  0  0  0  0  0  0  0  0  0  0  0
    9.4126   -5.9853   18.4899 C   0  0  0  0  0  0  0  0  0  0  0  0
    4.2064  -10.3242   18.3302 C   0  0  0  0  0  0  0  0  0  0  0  0
    9.6599   -4.1551   16.4796 N   0  0  0  0  0  0  0  0  0  0  0  0
    7.0644   -6.4612   15.7375 N   0  0  0  0  0  0  0  0  0  0  0  0
    5.3549   -9.6322   18.3190 C   0  0  0  0  0  0  0  0  0  0  0  0
   10.3704   -4.9638   18.6510 C   0  0  0  0  0  0  0  0  0  0  0  0
    5.5935   -8.6419   17.4234 C   0  0  0  0  0  0  0  0  0  0  0  0
   13.0726   -4.6648   23.3394 O   0  0  0  0  0  0  0  0  0  0  0  0
    8.5955   -6.0705   17.3996 C   0  0  0  0  0  0  0  0  0  0  0  0
    4.6223   -8.3832   16.5030 C   0  0  0  0  0  0  0  0  0  0  0  0
   12.4690   -5.2624   19.9024 C   0  0  0  0  0  0  0  0  0  0  0  0
    3.2548   -9.9919   17.4189 C   0  0  0  0  0  0  0  0  0  0  0  0
   12.4767   -4.7393   22.1790 C   0  0  0  0  0  0  0  0  0  0  0  0
    7.8593   -5.3772   15.3569 N   0  0  0  0  0  0  0  0  0  0  0  0
    7.4412   -6.9038   16.9283 C   0  0  0  0  0  0  0  0  0  0  0  0
  1 21  4  0
  1 23  4  0
  2  5  1  0
  2 13  4  0
  2 16  4  0
  3  6  4  0
  3  7  4  0
  4 13  4  0
  4 19  4  0
  4 24  4  0
  6 23  4  0
  7 16  1  0
  7 21  4  0
  8 18  1  0
  9 20  4  0
  9 22  4  0
 10 17  1  0
 10 25  1  0
 11 16  4  0
 11 19  4  0
 12 15  4  0
 12 22  4  0
 14 24  4  0
 14 25  4  0
 15 17  4  0
 17 20  4  0
 18 23  1  0
 19 25  4  0
M  END
$$$$

 Created by Python create_sdf_string function

 25 28  0  0  0  0  0  0  0  0999 V2000
   13.1533   -5.2399   21.0682 C   0  0  0  0  0  0  0  0  0  0  0  0
   10.4729   -4.0295   17.6135 C   0  0  0  0  0  0  0  0  0  0  0  0
   10.4789   -4.3641   20.9564 C   0  0  0  0  0  0  0  0  0  0  0  0
    8.7421   -5.1412   16.3650 C   0  0  0  0  0  0  0  0  0  0  0  0
   11.4353   -2.9204   17.8044 C   0  0  0  0  0  0  0  0  0  0  0  0
   11.1529   -4.3028   22.1277 C   0  0  0  0  0  0  0  0  0  0  0  0
   11.1290   -4.8502   19.8052 C   0  0  0  0  0  0  0  0  0  0  0  0
   12.4329   -4.2159   24.4224 C   0  0  0  0  0  0  0  0  0  0  0  0
    3.4740   -9.0387   16.5022 C   0  0  0  0  0  0  0  0  0  0  0  0
    6.8384   -7.9290   17.5282 N   0  0  0  0  0  0  0  0  0  0  0  0
    9.4126   -5.9853   18.4899 C   0  0  0  0  0  0  0  0  0  0  0  0
    4.2064  -10.3242   18.3302 C   0  0  0  0  0  0  0  0  0  0  0  0
    9.6599   -4.1551   16.4796 N   0  0  0  0  0  0  0  0  0  0  0  0
    7.0644   -6.4612   15.7375 N   0  0  0  0  0  0  0  0  0  0  0  0
    5.3549   -9.6322   18.3190 C   0  0  0  0  0  0  0  0  0  0  0  0
   10.3704   -4.9638   18.6510 C   0  0  0  0  0  0  0  0  0  0  0  0
    5.5935   -8.6419   17.4234 C   0  0  0  0  0  0  0  0  0  0  0  0
   13.0726   -4.6648   23.3394 O   0  0  0  0  0  0  0  0  0  0  0  0
    8.5955   -6.0705   17.3996 C   0  0  0  0  0  0  0  0  0  0  0  0
    4.6223   -8.3832   16.5030 C   0  0  0  0  0  0  0  0  0  0  0  0
   12.4690   -5.2624   19.9024 C   0  0  0  0  0  0  0  0  0  0  0  0
    3.2548   -9.9919   17.4189 C   0  0  0  0  0  0  0  0  0  0  0  0
   12.4767   -4.7393   22.1790 C   0  0  0  0  0  0  0  0  0  0  0  0
    7.8593   -5.3772   15.3569 N   0  0  0  0  0  0  0  0  0  0  0  0
    7.4412   -6.9038   16.9283 C   0  0  0  0  0  0  0  0  0  0  0  0
  1 21  4  0
  1 23  4  0
  2  5  1  0
  2 13  4  0
  2 16  4  0
  3  6  4  0
  3  7  4  0
  4 13  4  0
  4 19  4  0
  4 24  4  0
  6 23  4  0
  7 16  1  0
  7 21  4  0
  8 18  1  0
  9 20  4  0
  9 22  4  0
 10 17  1  0
 10 25  1  0
 11 16  4  0
 11 19  4  0
 12 15  4  0
 12 22  4  0
 14 24  4  0
 14 25  4  0
 15 17  4  0
 17 20  4  0
 18 23  1  0
 19 25  4  0
M  END
$$$$

 Created by Python create_sdf_string function

 25 28  0  0  0  0  0  0  0  0999 V2000
   13.1533   -5.2399   21.0682 C   0  0  0  0  0  0  0  0  0  0  0  0
   10.4729   -4.0295   17.6135 C   0  0  0  0  0  0  0  0  0  0  0  0
   10.4789   -4.3641   20.9564 C   0  0  0  0  0  0  0  0  0  0  0  0
    8.7421   -5.1412   16.3650 C   0  0  0  0  0  0  0  0  0  0  0  0
   11.4353   -2.9204   17.8044 C   0  0  0  0  0  0  0  0  0  0  0  0
   11.1529   -4.3028   22.1277 C   0  0  0  0  0  0  0  0  0  0  0  0
   11.1290   -4.8502   19.8052 C   0  0  0  0  0  0  0  0  0  0  0  0
   12.4329   -4.2159   24.4224 C   0  0  0  0  0  0  0  0  0  0  0  0
    3.4740   -9.0387   16.5022 C   0  0  0  0  0  0  0  0  0  0  0  0
    6.8384   -7.9290   17.5282 N   0  0  0  0  0  0  0  0  0  0  0  0
    9.4126   -5.9853   18.4899 C   0  0  0  0  0  0  0  0  0  0  0  0
    4.2064  -10.3242   18.3302 C   0  0  0  0  0  0  0  0  0  0  0  0
    9.6599   -4.1551   16.4796 N   0  0  0  0  0  0  0  0  0  0  0  0
    7.0644   -6.4612   15.7375 N   0  0  0  0  0  0  0  0  0  0  0  0
    5.3549   -9.6322   18.3190 C   0  0  0  0  0  0  0  0  0  0  0  0
   10.3704   -4.9638   18.6510 C   0  0  0  0  0  0  0  0  0  0  0  0
    5.5935   -8.6419   17.4234 C   0  0  0  0  0  0  0  0  0  0  0  0
   13.0726   -4.6648   23.3394 O   0  0  0  0  0  0  0  0  0  0  0  0
    8.5955   -6.0705   17.3996 C   0  0  0  0  0  0  0  0  0  0  0  0
    4.6223   -8.3832   16.5030 C   0  0  0  0  0  0  0  0  0  0  0  0
   12.4690   -5.2624   19.9024 C   0  0  0  0  0  0  0  0  0  0  0  0
    3.2548   -9.9919   17.4189 C   0  0  0  0  0  0  0  0  0  0  0  0
   12.4767   -4.7393   22.1790 C   0  0  0  0  0  0  0  0  0  0  0  0
    7.8593   -5.3772   15.3569 N   0  0  0  0  0  0  0  0  0  0  0  0
    7.4412   -6.9038   16.9283 C   0  0  0  0  0  0  0  0  0  0  0  0
  1 21  4  0
  1 23  4  0
  2  5  1  0
  2 13  4  0
  2 16  4  0
  3  6  4  0
  3  7  4  0
  4 13  4  0
  4 19  4  0
  4 24  4  0
  6 23  4  0
  7 16  1  0
  7 21  4  0
  8 18  1  0
  9 20  4  0
  9 22  4  0
 10 17  1  0
 10 25  1  0
 11 16  4  0
 11 19  4  0
 12 15  4  0
 12 22  4  0
 14 24  4  0
 14 25  4  0
 15 17  4  0
 17 20  4  0
 18 23  1  0
 19 25  4  0
M  END
$$$$

 Created by Python create_sdf_string function

 25 28  0  0  0  0  0  0  0  0999 V2000
   13.1533   -5.2399   21.0682 C   0  0  0  0  0  0  0  0  0  0  0  0
   10.4729   -4.0295   17.6135 C   0  0  0  0  0  0  0  0  0  0  0  0
   10.4789   -4.3641   20.9564 C   0  0  0  0  0  0  0  0  0  0  0  0
    8.7421   -5.1412   16.3650 C   0  0  0  0  0  0  0  0  0  0  0  0
   11.4353   -2.9204   17.8044 C   0  0  0  0  0  0  0  0  0  0  0  0
   11.1529   -4.3028   22.1277 C   0  0  0  0  0  0  0  0  0  0  0  0
   11.1290   -4.8502   19.8052 C   0  0  0  0  0  0  0  0  0  0  0  0
   12.4329   -4.2159   24.4224 C   0  0  0  0  0  0  0  0  0  0  0  0
    3.4740   -9.0387   16.5022 C   0  0  0  0  0  0  0  0  0  0  0  0
    6.8384   -7.9290   17.5282 N   0  0  0  0  0  0  0  0  0  0  0  0
    9.4126   -5.9853   18.4899 C   0  0  0  0  0  0  0  0  0  0  0  0
    4.2064  -10.3242   18.3302 C   0  0  0  0  0  0  0  0  0  0  0  0
    9.6599   -4.1551   16.4796 N   0  0  0  0  0  0  0  0  0  0  0  0
    7.0644   -6.4612   15.7375 N   0  0  0  0  0  0  0  0  0  0  0  0
    5.3549   -9.6322   18.3190 C   0  0  0  0  0  0  0  0  0  0  0  0
   10.3704   -4.9638   18.6510 C   0  0  0  0  0  0  0  0  0  0  0  0
    5.5935   -8.6419   17.4234 C   0  0  0  0  0  0  0  0  0  0  0  0
   13.0726   -4.6648   23.3394 O   0  0  0  0  0  0  0  0  0  0  0  0
    8.5955   -6.0705   17.3996 C   0  0  0  0  0  0  0  0  0  0  0  0
    4.6223   -8.3832   16.5030 C   0  0  0  0  0  0  0  0  0  0  0  0
   12.4690   -5.2624   19.9024 C   0  0  0  0  0  0  0  0  0  0  0  0
    3.2548   -9.9919   17.4189 C   0  0  0  0  0  0  0  0  0  0  0  0
   12.4767   -4.7393   22.1790 C   0  0  0  0  0  0  0  0  0  0  0  0
    7.8593   -5.3772   15.3569 N   0  0  0  0  0  0  0  0  0  0  0  0
    7.4412   -6.9038   16.9283 C   0  0  0  0  0  0  0  0  0  0  0  0
  1 21  4  0
  1 23  4  0
  2  5  1  0
  2 13  4  0
  2 16  4  0
  3  6  4  0
  3  7  4  0
  4 13  4  0
  4 19  4  0
  4 24  4  0
  6 23  4  0
  7 16  1  0
  7 21  4  0
  8 18  1  0
  9 20  4  0
  9 22  4  0
 10 17  1  0
 10 25  1  0
 11 16  4  0
 11 19  4  0
 12 15  4  0
 12 22  4  0
 14 24  4  0
 14 25  4  0
 15 17  4  0
 17 20  4  0
 18 23  1  0
 19 25  4  0
M  END
$$$$

 Created by Python create_sdf_string function

 25 28  0  0  0  0  0  0  0  0999 V2000
   13.1533   -5.2399   21.0682 C   0  0  0  0  0  0  0  0  0  0  0  0
   10.4729   -4.0295   17.6135 C   0  0  0  0  0  0  0  0  0  0  0  0
   10.4789   -4.3641   20.9564 C   0  0  0  0  0  0  0  0  0  0  0  0
    8.7421   -5.1412   16.3650 C   0  0  0  0  0  0  0  0  0  0  0  0
   11.4353   -2.9204   17.8044 C   0  0  0  0  0  0  0  0  0  0  0  0
   11.1529   -4.3028   22.1277 C   0  0  0  0  0  0  0  0  0  0  0  0
   11.1290   -4.8502   19.8052 C   0  0  0  0  0  0  0  0  0  0  0  0
   12.4329   -4.2159   24.4224 C   0  0  0  0  0  0  0  0  0  0  0  0
    3.4740   -9.0387   16.5022 C   0  0  0  0  0  0  0  0  0  0  0  0
    6.8384   -7.9290   17.5282 N   0  0  0  0  0  0  0  0  0  0  0  0
    9.4126   -5.9853   18.4899 C   0  0  0  0  0  0  0  0  0  0  0  0
    4.2064  -10.3242   18.3302 C   0  0  0  0  0  0  0  0  0  0  0  0
    9.6599   -4.1551   16.4796 N   0  0  0  0  0  0  0  0  0  0  0  0
    7.0644   -6.4612   15.7375 N   0  0  0  0  0  0  0  0  0  0  0  0
    5.3549   -9.6322   18.3190 C   0  0  0  0  0  0  0  0  0  0  0  0
   10.3704   -4.9638   18.6510 C   0  0  0  0  0  0  0  0  0  0  0  0
    5.5935   -8.6419   17.4234 C   0  0  0  0  0  0  0  0  0  0  0  0
   13.0726   -4.6648   23.3394 O   0  0  0  0  0  0  0  0  0  0  0  0
    8.5955   -6.0705   17.3996 C   0  0  0  0  0  0  0  0  0  0  0  0
    4.6223   -8.3832   16.5030 C   0  0  0  0  0  0  0  0  0  0  0  0
   12.4690   -5.2624   19.9024 C   0  0  0  0  0  0  0  0  0  0  0  0
    3.2548   -9.9919   17.4189 C   0  0  0  0  0  0  0  0  0  0  0  0
   12.4767   -4.7393   22.1790 C   0  0  0  0  0  0  0  0  0  0  0  0
    7.8593   -5.3772   15.3569 N   0  0  0  0  0  0  0  0  0  0  0  0
    7.4412   -6.9038   16.9283 C   0  0  0  0  0  0  0  0  0  0  0  0
  1 21  4  0
  1 23  4  0
  2  5  1  0
  2 13  4  0
  2 16  4  0
  3  6  4  0
  3  7  4  0
  4 13  4  0
  4 19  4  0
  4 24  4  0
  6 23  4  0
  7 16  1  0
  7 21  4  0
  8 18  1  0
  9 20  4  0
  9 22  4  0
 10 17  1  0
 10 25  1  0
 11 16  4  0
 11 19  4  0
 12 15  4  0
 12 22  4  0
 14 24  4  0
 14 25  4  0
 15 17  4  0
 17 20  4  0
 18 23  1  0
 19 25  4  0
M  END
$$$$

 Created by Python create_sdf_string function

 25 28  0  0  0  0  0  0  0  0999 V2000
   13.1533   -5.2399   21.0682 C   0  0  0  0  0  0  0  0  0  0  0  0
   10.4729   -4.0295   17.6135 C   0  0  0  0  0  0  0  0  0  0  0  0
   10.4789   -4.3641   20.9564 C   0  0  0  0  0  0  0  0  0  0  0  0
    8.7421   -5.1412   16.3650 C   0  0  0  0  0  0  0  0  0  0  0  0
   11.4353   -2.9204   17.8044 C   0  0  0  0  0  0  0  0  0  0  0  0
   11.1529   -4.3028   22.1277 C   0  0  0  0  0  0  0  0  0  0  0  0
   11.1290   -4.8502   19.8052 C   0  0  0  0  0  0  0  0  0  0  0  0
   12.4329   -4.2159   24.4224 C   0  0  0  0  0  0  0  0  0  0  0  0
    3.4740   -9.0387   16.5022 C   0  0  0  0  0  0  0  0  0  0  0  0
    6.8384   -7.9290   17.5282 N   0  0  0  0  0  0  0  0  0  0  0  0
    9.4126   -5.9853   18.4899 C   0  0  0  0  0  0  0  0  0  0  0  0
    4.2064  -10.3242   18.3302 C   0  0  0  0  0  0  0  0  0  0  0  0
    9.6599   -4.1551   16.4796 N   0  0  0  0  0  0  0  0  0  0  0  0
    7.0644   -6.4612   15.7375 N   0  0  0  0  0  0  0  0  0  0  0  0
    5.3549   -9.6322   18.3190 C   0  0  0  0  0  0  0  0  0  0  0  0
   10.3704   -4.9638   18.6510 C   0  0  0  0  0  0  0  0  0  0  0  0
    5.5935   -8.6419   17.4234 C   0  0  0  0  0  0  0  0  0  0  0  0
   13.0726   -4.6648   23.3394 O   0  0  0  0  0  0  0  0  0  0  0  0
    8.5955   -6.0705   17.3996 C   0  0  0  0  0  0  0  0  0  0  0  0
    4.6223   -8.3832   16.5030 C   0  0  0  0  0  0  0  0  0  0  0  0
   12.4690   -5.2624   19.9024 C   0  0  0  0  0  0  0  0  0  0  0  0
    3.2548   -9.9919   17.4189 C   0  0  0  0  0  0  0  0  0  0  0  0
   12.4767   -4.7393   22.1790 C   0  0  0  0  0  0  0  0  0  0  0  0
    7.8593   -5.3772   15.3569 N   0  0  0  0  0  0  0  0  0  0  0  0
    7.4412   -6.9038   16.9283 C   0  0  0  0  0  0  0  0  0  0  0  0
  1 21  4  0
  1 23  4  0
  2  5  1  0
  2 13  4  0
  2 16  4  0
  3  6  4  0
  3  7  4  0
  4 13  4  0
  4 19  4  0
  4 24  4  0
  6 23  4  0
  7 16  1  0
  7 21  4  0
  8 18  1  0
  9 20  4  0
  9 22  4  0
 10 17  1  0
 10 25  1  0
 11 16  4  0
 11 19  4  0
 12 15  4  0
 12 22  4  0
 14 24  4  0
 14 25  4  0
 15 17  4  0
 17 20  4  0
 18 23  1  0
 19 25  4  0
M  END
$$$$

 Created by Python create_sdf_string function

 25 28  0  0  0  0  0  0  0  0999 V2000
   13.1533   -5.2399   21.0682 C   0  0  0  0  0  0  0  0  0  0  0  0
   10.4729   -4.0295   17.6135 C   0  0  0  0  0  0  0  0  0  0  0  0
   10.4789   -4.3641   20.9564 C   0  0  0  0  0  0  0  0  0  0  0  0
    8.7421   -5.1412   16.3650 C   0  0  0  0  0  0  0  0  0  0  0  0
   11.4353   -2.9204   17.8044 C   0  0  0  0  0  0  0  0  0  0  0  0
   11.1529   -4.3028   22.1277 C   0  0  0  0  0  0  0  0  0  0  0  0
   11.1290   -4.8502   19.8052 C   0  0  0  0  0  0  0  0  0  0  0  0
   12.4329   -4.2159   24.4224 C   0  0  0  0  0  0  0  0  0  0  0  0
    3.4740   -9.0387   16.5022 C   0  0  0  0  0  0  0  0  0  0  0  0
    6.8384   -7.9290   17.5282 N   0  0  0  0  0  0  0  0  0  0  0  0
    9.4126   -5.9853   18.4899 C   0  0  0  0  0  0  0  0  0  0  0  0
    4.2064  -10.3242   18.3302 C   0  0  0  0  0  0  0  0  0  0  0  0
    9.6599   -4.1551   16.4796 N   0  0  0  0  0  0  0  0  0  0  0  0
    7.0644   -6.4612   15.7375 N   0  0  0  0  0  0  0  0  0  0  0  0
    5.3549   -9.6322   18.3190 C   0  0  0  0  0  0  0  0  0  0  0  0
   10.3704   -4.9638   18.6510 C   0  0  0  0  0  0  0  0  0  0  0  0
    5.5935   -8.6419   17.4234 C   0  0  0  0  0  0  0  0  0  0  0  0
   13.0726   -4.6648   23.3394 O   0  0  0  0  0  0  0  0  0  0  0  0
    8.5955   -6.0705   17.3996 C   0  0  0  0  0  0  0  0  0  0  0  0
    4.6223   -8.3832   16.5030 C   0  0  0  0  0  0  0  0  0  0  0  0
   12.4690   -5.2624   19.9024 C   0  0  0  0  0  0  0  0  0  0  0  0
    3.2548   -9.9919   17.4189 C   0  0  0  0  0  0  0  0  0  0  0  0
   12.4767   -4.7393   22.1790 C   0  0  0  0  0  0  0  0  0  0  0  0
    7.8593   -5.3772   15.3569 N   0  0  0  0  0  0  0  0  0  0  0  0
    7.4412   -6.9038   16.9283 C   0  0  0  0  0  0  0  0  0  0  0  0
  1 21  4  0
  1 23  4  0
  2  5  1  0
  2 13  4  0
  2 16  4  0
  3  6  4  0
  3  7  4  0
  4 13  4  0
  4 19  4  0
  4 24  4  0
  6 23  4  0
  7 16  1  0
  7 21  4  0
  8 18  1  0
  9 20  4  0
  9 22  4  0
 10 17  1  0
 10 25  1  0
 11 16  4  0
 11 19  4  0
 12 15  4  0
 12 22  4  0
 14 24  4  0
 14 25  4  0
 15 17  4  0
 17 20  4  0
 18 23  1  0
 19 25  4  0
M  END
$$$$

 Created by Python create_sdf_string function

 25 28  0  0  0  0  0  0  0  0999 V2000
   13.1533   -5.2399   21.0682 C   0  0  0  0  0  0  0  0  0  0  0  0
   10.4729   -4.0295   17.6135 C   0  0  0  0  0  0  0  0  0  0  0  0
   10.4789   -4.3641   20.9564 C   0  0  0  0  0  0  0  0  0  0  0  0
    8.7421   -5.1412   16.3650 C   0  0  0  0  0  0  0  0  0  0  0  0
   11.4353   -2.9204   17.8044 C   0  0  0  0  0  0  0  0  0  0  0  0
   11.1529   -4.3028   22.1277 C   0  0  0  0  0  0  0  0  0  0  0  0
   11.1290   -4.8502   19.8052 C   0  0  0  0  0  0  0  0  0  0  0  0
   12.4329   -4.2159   24.4224 C   0  0  0  0  0  0  0  0  0  0  0  0
    3.4740   -9.0387   16.5022 C   0  0  0  0  0  0  0  0  0  0  0  0
    6.8384   -7.9290   17.5282 N   0  0  0  0  0  0  0  0  0  0  0  0
    9.4126   -5.9853   18.4899 C   0  0  0  0  0  0  0  0  0  0  0  0
    4.2064  -10.3242   18.3302 C   0  0  0  0  0  0  0  0  0  0  0  0
    9.6599   -4.1551   16.4796 N   0  0  0  0  0  0  0  0  0  0  0  0
    7.0644   -6.4612   15.7375 N   0  0  0  0  0  0  0  0  0  0  0  0
    5.3549   -9.6322   18.3190 C   0  0  0  0  0  0  0  0  0  0  0  0
   10.3704   -4.9638   18.6510 C   0  0  0  0  0  0  0  0  0  0  0  0
    5.5935   -8.6419   17.4234 C   0  0  0  0  0  0  0  0  0  0  0  0
   13.0726   -4.6648   23.3394 O   0  0  0  0  0  0  0  0  0  0  0  0
    8.5955   -6.0705   17.3996 C   0  0  0  0  0  0  0  0  0  0  0  0
    4.6223   -8.3832   16.5030 C   0  0  0  0  0  0  0  0  0  0  0  0
   12.4690   -5.2624   19.9024 C   0  0  0  0  0  0  0  0  0  0  0  0
    3.2548   -9.9919   17.4189 C   0  0  0  0  0  0  0  0  0  0  0  0
   12.4767   -4.7393   22.1790 C   0  0  0  0  0  0  0  0  0  0  0  0
    7.8593   -5.3772   15.3569 N   0  0  0  0  0  0  0  0  0  0  0  0
    7.4412   -6.9038   16.9283 C   0  0  0  0  0  0  0  0  0  0  0  0
  1 21  4  0
  1 23  4  0
  2  5  1  0
  2 13  4  0
  2 16  4  0
  3  6  4  0
  3  7  4  0
  4 13  4  0
  4 19  4  0
  4 24  4  0
  6 23  4  0
  7 16  1  0
  7 21  4  0
  8 18  1  0
  9 20  4  0
  9 22  4  0
 10 17  1  0
 10 25  1  0
 11 16  4  0
 11 19  4  0
 12 15  4  0
 12 22  4  0
 14 24  4  0
 14 25  4  0
 15 17  4  0
 17 20  4  0
 18 23  1  0
 19 25  4  0
M  END
$$$$

 Created by Python create_sdf_string function

 25 28  0  0  0  0  0  0  0  0999 V2000
   13.1533   -5.2399   21.0682 C   0  0  0  0  0  0  0  0  0  0  0  0
   10.4729   -4.0295   17.6135 C   0  0  0  0  0  0  0  0  0  0  0  0
   10.4789   -4.3641   20.9564 C   0  0  0  0  0  0  0  0  0  0  0  0
    8.7421   -5.1412   16.3650 C   0  0  0  0  0  0  0  0  0  0  0  0
   11.4353   -2.9204   17.8044 C   0  0  0  0  0  0  0  0  0  0  0  0
   11.1529   -4.3028   22.1277 C   0  0  0  0  0  0  0  0  0  0  0  0
   11.1290   -4.8502   19.8052 C   0  0  0  0  0  0  0  0  0  0  0  0
   12.4329   -4.2159   24.4224 C   0  0  0  0  0  0  0  0  0  0  0  0
    3.4740   -9.0387   16.5022 C   0  0  0  0  0  0  0  0  0  0  0  0
    6.8384   -7.9290   17.5282 N   0  0  0  0  0  0  0  0  0  0  0  0
    9.4126   -5.9853   18.4899 C   0  0  0  0  0  0  0  0  0  0  0  0
    4.2064  -10.3242   18.3302 C   0  0  0  0  0  0  0  0  0  0  0  0
    9.6599   -4.1551   16.4796 N   0  0  0  0  0  0  0  0  0  0  0  0
    7.0644   -6.4612   15.7375 N   0  0  0  0  0  0  0  0  0  0  0  0
    5.3549   -9.6322   18.3190 C   0  0  0  0  0  0  0  0  0  0  0  0
   10.3704   -4.9638   18.6510 C   0  0  0  0  0  0  0  0  0  0  0  0
    5.5935   -8.6419   17.4234 C   0  0  0  0  0  0  0  0  0  0  0  0
   13.0726   -4.6648   23.3394 O   0  0  0  0  0  0  0  0  0  0  0  0
    8.5955   -6.0705   17.3996 C   0  0  0  0  0  0  0  0  0  0  0  0
    4.6223   -8.3832   16.5030 C   0  0  0  0  0  0  0  0  0  0  0  0
   12.4690   -5.2624   19.9024 C   0  0  0  0  0  0  0  0  0  0  0  0
    3.2548   -9.9919   17.4189 C   0  0  0  0  0  0  0  0  0  0  0  0
   12.4767   -4.7393   22.1790 C   0  0  0  0  0  0  0  0  0  0  0  0
    7.8593   -5.3772   15.3569 N   0  0  0  0  0  0  0  0  0  0  0  0
    7.4412   -6.9038   16.9283 C   0  0  0  0  0  0  0  0  0  0  0  0
  1 21  4  0
  1 23  4  0
  2  5  1  0
  2 13  4  0
  2 16  4  0
  3  6  4  0
  3  7  4  0
  4 13  4  0
  4 19  4  0
  4 24  4  0
  6 23  4  0
  7 16  1  0
  7 21  4  0
  8 18  1  0
  9 20  4  0
  9 22  4  0
 10 17  1  0
 10 25  1  0
 11 16  4  0
 11 19  4  0
 12 15  4  0
 12 22  4  0
 14 24  4  0
 14 25  4  0
 15 17  4  0
 17 20  4  0
 18 23  1  0
 19 25  4  0
M  END
$$$$

 Created by Python create_sdf_string function

 25 28  0  0  0  0  0  0  0  0999 V2000
   13.1533   -5.2399   21.0682 C   0  0  0  0  0  0  0  0  0  0  0  0
   10.4729   -4.0295   17.6135 C   0  0  0  0  0  0  0  0  0  0  0  0
   10.4789   -4.3641   20.9564 C   0  0  0  0  0  0  0  0  0  0  0  0
    8.7421   -5.1412   16.3650 C   0  0  0  0  0  0  0  0  0  0  0  0
   11.4353   -2.9204   17.8044 C   0  0  0  0  0  0  0  0  0  0  0  0
   11.1529   -4.3028   22.1277 C   0  0  0  0  0  0  0  0  0  0  0  0
   11.1290   -4.8502   19.8052 C   0  0  0  0  0  0  0  0  0  0  0  0
   12.4329   -4.2159   24.4224 C   0  0  0  0  0  0  0  0  0  0  0  0
    3.4740   -9.0387   16.5022 C   0  0  0  0  0  0  0  0  0  0  0  0
    6.8384   -7.9290   17.5282 N   0  0  0  0  0  0  0  0  0  0  0  0
    9.4126   -5.9853   18.4899 C   0  0  0  0  0  0  0  0  0  0  0  0
    4.2064  -10.3242   18.3302 C   0  0  0  0  0  0  0  0  0  0  0  0
    9.6599   -4.1551   16.4796 N   0  0  0  0  0  0  0  0  0  0  0  0
    7.0644   -6.4612   15.7375 N   0  0  0  0  0  0  0  0  0  0  0  0
    5.3549   -9.6322   18.3190 C   0  0  0  0  0  0  0  0  0  0  0  0
   10.3704   -4.9638   18.6510 C   0  0  0  0  0  0  0  0  0  0  0  0
    5.5935   -8.6419   17.4234 C   0  0  0  0  0  0  0  0  0  0  0  0
   13.0726   -4.6648   23.3394 O   0  0  0  0  0  0  0  0  0  0  0  0
    8.5955   -6.0705   17.3996 C   0  0  0  0  0  0  0  0  0  0  0  0
    4.6223   -8.3832   16.5030 C   0  0  0  0  0  0  0  0  0  0  0  0
   12.4690   -5.2624   19.9024 C   0  0  0  0  0  0  0  0  0  0  0  0
    3.2548   -9.9919   17.4189 C   0  0  0  0  0  0  0  0  0  0  0  0
   12.4767   -4.7393   22.1790 C   0  0  0  0  0  0  0  0  0  0  0  0
    7.8593   -5.3772   15.3569 N   0  0  0  0  0  0  0  0  0  0  0  0
    7.4412   -6.9038   16.9283 C   0  0  0  0  0  0  0  0  0  0  0  0
  1 21  4  0
  1 23  4  0
  2  5  1  0
  2 13  4  0
  2 16  4  0
  3  6  4  0
  3  7  4  0
  4 13  4  0
  4 19  4  0
  4 24  4  0
  6 23  4  0
  7 16  1  0
  7 21  4  0
  8 18  1  0
  9 20  4  0
  9 22  4  0
 10 17  1  0
 10 25  1  0
 11 16  4  0
 11 19  4  0
 12 15  4  0
 12 22  4  0
 14 24  4  0
 14 25  4  0
 15 17  4  0
 17 20  4  0
 18 23  1  0
 19 25  4  0
M  END
$$$$

 Created by Python create_sdf_string function

 25 28  0  0  0  0  0  0  0  0999 V2000
   13.1533   -5.2399   21.0682 C   0  0  0  0  0  0  0  0  0  0  0  0
   10.4729   -4.0295   17.6135 C   0  0  0  0  0  0  0  0  0  0  0  0
   10.4789   -4.3641   20.9564 C   0  0  0  0  0  0  0  0  0  0  0  0
    8.7421   -5.1412   16.3650 C   0  0  0  0  0  0  0  0  0  0  0  0
   11.4353   -2.9204   17.8044 C   0  0  0  0  0  0  0  0  0  0  0  0
   11.1529   -4.3028   22.1277 C   0  0  0  0  0  0  0  0  0  0  0  0
   11.1290   -4.8502   19.8052 C   0  0  0  0  0  0  0  0  0  0  0  0
   12.4329   -4.2159   24.4224 C   0  0  0  0  0  0  0  0  0  0  0  0
    3.4740   -9.0387   16.5022 C   0  0  0  0  0  0  0  0  0  0  0  0
    6.8384   -7.9290   17.5282 N   0  0  0  0  0  0  0  0  0  0  0  0
    9.4126   -5.9853   18.4899 C   0  0  0  0  0  0  0  0  0  0  0  0
    4.2064  -10.3242   18.3302 C   0  0  0  0  0  0  0  0  0  0  0  0
    9.6599   -4.1551   16.4796 N   0  0  0  0  0  0  0  0  0  0  0  0
    7.0644   -6.4612   15.7375 N   0  0  0  0  0  0  0  0  0  0  0  0
    5.3549   -9.6322   18.3190 C   0  0  0  0  0  0  0  0  0  0  0  0
   10.3704   -4.9638   18.6510 C   0  0  0  0  0  0  0  0  0  0  0  0
    5.5935   -8.6419   17.4234 C   0  0  0  0  0  0  0  0  0  0  0  0
   13.0726   -4.6648   23.3394 O   0  0  0  0  0  0  0  0  0  0  0  0
    8.5955   -6.0705   17.3996 C   0  0  0  0  0  0  0  0  0  0  0  0
    4.6223   -8.3832   16.5030 C   0  0  0  0  0  0  0  0  0  0  0  0
   12.4690   -5.2624   19.9024 C   0  0  0  0  0  0  0  0  0  0  0  0
    3.2548   -9.9919   17.4189 C   0  0  0  0  0  0  0  0  0  0  0  0
   12.4767   -4.7393   22.1790 C   0  0  0  0  0  0  0  0  0  0  0  0
    7.8593   -5.3772   15.3569 N   0  0  0  0  0  0  0  0  0  0  0  0
    7.4412   -6.9038   16.9283 C   0  0  0  0  0  0  0  0  0  0  0  0
  1 21  4  0
  1 23  4  0
  2  5  1  0
  2 13  4  0
  2 16  4  0
  3  6  4  0
  3  7  4  0
  4 13  4  0
  4 19  4  0
  4 24  4  0
  6 23  4  0
  7 16  1  0
  7 21  4  0
  8 18  1  0
  9 20  4  0
  9 22  4  0
 10 17  1  0
 10 25  1  0
 11 16  4  0
 11 19  4  0
 12 15  4  0
 12 22  4  0
 14 24  4  0
 14 25  4  0
 15 17  4  0
 17 20  4  0
 18 23  1  0
 19 25  4  0
M  END
$$$$

 Created by Python create_sdf_string function

 25 28  0  0  0  0  0  0  0  0999 V2000
   13.1533   -5.2399   21.0682 C   0  0  0  0  0  0  0  0  0  0  0  0
   10.4729   -4.0295   17.6135 C   0  0  0  0  0  0  0  0  0  0  0  0
   10.4789   -4.3641   20.9564 C   0  0  0  0  0  0  0  0  0  0  0  0
    8.7421   -5.1412   16.3650 C   0  0  0  0  0  0  0  0  0  0  0  0
   11.4353   -2.9204   17.8044 C   0  0  0  0  0  0  0  0  0  0  0  0
   11.1529   -4.3028   22.1277 C   0  0  0  0  0  0  0  0  0  0  0  0
   11.1290   -4.8502   19.8052 C   0  0  0  0  0  0  0  0  0  0  0  0
   12.4329   -4.2159   24.4224 C   0  0  0  0  0  0  0  0  0  0  0  0
    3.4740   -9.0387   16.5022 C   0  0  0  0  0  0  0  0  0  0  0  0
    6.8384   -7.9290   17.5282 N   0  0  0  0  0  0  0  0  0  0  0  0
    9.4126   -5.9853   18.4899 C   0  0  0  0  0  0  0  0  0  0  0  0
    4.2064  -10.3242   18.3302 C   0  0  0  0  0  0  0  0  0  0  0  0
    9.6599   -4.1551   16.4796 N   0  0  0  0  0  0  0  0  0  0  0  0
    7.0644   -6.4612   15.7375 N   0  0  0  0  0  0  0  0  0  0  0  0
    5.3549   -9.6322   18.3190 C   0  0  0  0  0  0  0  0  0  0  0  0
   10.3704   -4.9638   18.6510 C   0  0  0  0  0  0  0  0  0  0  0  0
    5.5935   -8.6419   17.4234 C   0  0  0  0  0  0  0  0  0  0  0  0
   13.0726   -4.6648   23.3394 O   0  0  0  0  0  0  0  0  0  0  0  0
    8.5955   -6.0705   17.3996 C   0  0  0  0  0  0  0  0  0  0  0  0
    4.6223   -8.3832   16.5030 C   0  0  0  0  0  0  0  0  0  0  0  0
   12.4690   -5.2624   19.9024 C   0  0  0  0  0  0  0  0  0  0  0  0
    3.2548   -9.9919   17.4189 C   0  0  0  0  0  0  0  0  0  0  0  0
   12.4767   -4.7393   22.1790 C   0  0  0  0  0  0  0  0  0  0  0  0
    7.8593   -5.3772   15.3569 N   0  0  0  0  0  0  0  0  0  0  0  0
    7.4412   -6.9038   16.9283 C   0  0  0  0  0  0  0  0  0  0  0  0
  1 21  4  0
  1 23  4  0
  2  5  1  0
  2 13  4  0
  2 16  4  0
  3  6  4  0
  3  7  4  0
  4 13  4  0
  4 19  4  0
  4 24  4  0
  6 23  4  0
  7 16  1  0
  7 21  4  0
  8 18  1  0
  9 20  4  0
  9 22  4  0
 10 17  1  0
 10 25  1  0
 11 16  4  0
 11 19  4  0
 12 15  4  0
 12 22  4  0
 14 24  4  0
 14 25  4  0
 15 17  4  0
 17 20  4  0
 18 23  1  0
 19 25  4  0
M  END
$$$$

 Created by Python create_sdf_string function

 25 28  0  0  0  0  0  0  0  0999 V2000
   13.1533   -5.2399   21.0682 C   0  0  0  0  0  0  0  0  0  0  0  0
   10.4729   -4.0295   17.6135 C   0  0  0  0  0  0  0  0  0  0  0  0
   10.4789   -4.3641   20.9564 C   0  0  0  0  0  0  0  0  0  0  0  0
    8.7421   -5.1412   16.3650 C   0  0  0  0  0  0  0  0  0  0  0  0
   11.4353   -2.9204   17.8044 C   0  0  0  0  0  0  0  0  0  0  0  0
   11.1529   -4.3028   22.1277 C   0  0  0  0  0  0  0  0  0  0  0  0
   11.1290   -4.8502   19.8052 C   0  0  0  0  0  0  0  0  0  0  0  0
   12.4329   -4.2159   24.4224 C   0  0  0  0  0  0  0  0  0  0  0  0
    3.4740   -9.0387   16.5022 C   0  0  0  0  0  0  0  0  0  0  0  0
    6.8384   -7.9290   17.5282 N   0  0  0  0  0  0  0  0  0  0  0  0
    9.4126   -5.9853   18.4899 C   0  0  0  0  0  0  0  0  0  0  0  0
    4.2064  -10.3242   18.3302 C   0  0  0  0  0  0  0  0  0  0  0  0
    9.6599   -4.1551   16.4796 N   0  0  0  0  0  0  0  0  0  0  0  0
    7.0644   -6.4612   15.7375 N   0  0  0  0  0  0  0  0  0  0  0  0
    5.3549   -9.6322   18.3190 C   0  0  0  0  0  0  0  0  0  0  0  0
   10.3704   -4.9638   18.6510 C   0  0  0  0  0  0  0  0  0  0  0  0
    5.5935   -8.6419   17.4234 C   0  0  0  0  0  0  0  0  0  0  0  0
   13.0726   -4.6648   23.3394 O   0  0  0  0  0  0  0  0  0  0  0  0
    8.5955   -6.0705   17.3996 C   0  0  0  0  0  0  0  0  0  0  0  0
    4.6223   -8.3832   16.5030 C   0  0  0  0  0  0  0  0  0  0  0  0
   12.4690   -5.2624   19.9024 C   0  0  0  0  0  0  0  0  0  0  0  0
    3.2548   -9.9919   17.4189 C   0  0  0  0  0  0  0  0  0  0  0  0
   12.4767   -4.7393   22.1790 C   0  0  0  0  0  0  0  0  0  0  0  0
    7.8593   -5.3772   15.3569 N   0  0  0  0  0  0  0  0  0  0  0  0
    7.4412   -6.9038   16.9283 C   0  0  0  0  0  0  0  0  0  0  0  0
  1 21  4  0
  1 23  4  0
  2  5  1  0
  2 13  4  0
  2 16  4  0
  3  6  4  0
  3  7  4  0
  4 13  4  0
  4 19  4  0
  4 24  4  0
  6 23  4  0
  7 16  1  0
  7 21  4  0
  8 18  1  0
  9 20  4  0
  9 22  4  0
 10 17  1  0
 10 25  1  0
 11 16  4  0
 11 19  4  0
 12 15  4  0
 12 22  4  0
 14 24  4  0
 14 25  4  0
 15 17  4  0
 17 20  4  0
 18 23  1  0
 19 25  4  0
M  END
$$$$

 Created by Python create_sdf_string function

 25 28  0  0  0  0  0  0  0  0999 V2000
   13.1533   -5.2399   21.0682 C   0  0  0  0  0  0  0  0  0  0  0  0
   10.4729   -4.0295   17.6135 C   0  0  0  0  0  0  0  0  0  0  0  0
   10.4789   -4.3641   20.9564 C   0  0  0  0  0  0  0  0  0  0  0  0
    8.7421   -5.1412   16.3650 C   0  0  0  0  0  0  0  0  0  0  0  0
   11.4353   -2.9204   17.8044 C   0  0  0  0  0  0  0  0  0  0  0  0
   11.1529   -4.3028   22.1277 C   0  0  0  0  0  0  0  0  0  0  0  0
   11.1290   -4.8502   19.8052 C   0  0  0  0  0  0  0  0  0  0  0  0
   12.4329   -4.2159   24.4224 C   0  0  0  0  0  0  0  0  0  0  0  0
    3.4740   -9.0387   16.5022 C   0  0  0  0  0  0  0  0  0  0  0  0
    6.8384   -7.9290   17.5282 N   0  0  0  0  0  0  0  0  0  0  0  0
    9.4126   -5.9853   18.4899 C   0  0  0  0  0  0  0  0  0  0  0  0
    4.2064  -10.3242   18.3302 C   0  0  0  0  0  0  0  0  0  0  0  0
    9.6599   -4.1551   16.4796 N   0  0  0  0  0  0  0  0  0  0  0  0
    7.0644   -6.4612   15.7375 N   0  0  0  0  0  0  0  0  0  0  0  0
    5.3549   -9.6322   18.3190 C   0  0  0  0  0  0  0  0  0  0  0  0
   10.3704   -4.9638   18.6510 C   0  0  0  0  0  0  0  0  0  0  0  0
    5.5935   -8.6419   17.4234 C   0  0  0  0  0  0  0  0  0  0  0  0
   13.0726   -4.6648   23.3394 O   0  0  0  0  0  0  0  0  0  0  0  0
    8.5955   -6.0705   17.3996 C   0  0  0  0  0  0  0  0  0  0  0  0
    4.6223   -8.3832   16.5030 C   0  0  0  0  0  0  0  0  0  0  0  0
   12.4690   -5.2624   19.9024 C   0  0  0  0  0  0  0  0  0  0  0  0
    3.2548   -9.9919   17.4189 C   0  0  0  0  0  0  0  0  0  0  0  0
   12.4767   -4.7393   22.1790 C   0  0  0  0  0  0  0  0  0  0  0  0
    7.8593   -5.3772   15.3569 N   0  0  0  0  0  0  0  0  0  0  0  0
    7.4412   -6.9038   16.9283 C   0  0  0  0  0  0  0  0  0  0  0  0
  1 21  4  0
  1 23  4  0
  2  5  1  0
  2 13  4  0
  2 16  4  0
  3  6  4  0
  3  7  4  0
  4 13  4  0
  4 19  4  0
  4 24  4  0
  6 23  4  0
  7 16  1  0
  7 21  4  0
  8 18  1  0
  9 20  4  0
  9 22  4  0
 10 17  1  0
 10 25  1  0
 11 16  4  0
 11 19  4  0
 12 15  4  0
 12 22  4  0
 14 24  4  0
 14 25  4  0
 15 17  4  0
 17 20  4  0
 18 23  1  0
 19 25  4  0
M  END
$$$$

 Created by Python create_sdf_string function

 25 28  0  0  0  0  0  0  0  0999 V2000
   13.1533   -5.2399   21.0682 C   0  0  0  0  0  0  0  0  0  0  0  0
   10.4729   -4.0295   17.6135 C   0  0  0  0  0  0  0  0  0  0  0  0
   10.4789   -4.3641   20.9564 C   0  0  0  0  0  0  0  0  0  0  0  0
    8.7421   -5.1412   16.3650 C   0  0  0  0  0  0  0  0  0  0  0  0
   11.4353   -2.9204   17.8044 C   0  0  0  0  0  0  0  0  0  0  0  0
   11.1529   -4.3028   22.1277 C   0  0  0  0  0  0  0  0  0  0  0  0
   11.1290   -4.8502   19.8052 C   0  0  0  0  0  0  0  0  0  0  0  0
   12.4329   -4.2159   24.4224 C   0  0  0  0  0  0  0  0  0  0  0  0
    3.4740   -9.0387   16.5022 C   0  0  0  0  0  0  0  0  0  0  0  0
    6.8384   -7.9290   17.5282 N   0  0  0  0  0  0  0  0  0  0  0  0
    9.4126   -5.9853   18.4899 C   0  0  0  0  0  0  0  0  0  0  0  0
    4.2064  -10.3242   18.3302 C   0  0  0  0  0  0  0  0  0  0  0  0
    9.6599   -4.1551   16.4796 N   0  0  0  0  0  0  0  0  0  0  0  0
    7.0644   -6.4612   15.7375 N   0  0  0  0  0  0  0  0  0  0  0  0
    5.3549   -9.6322   18.3190 C   0  0  0  0  0  0  0  0  0  0  0  0
   10.3704   -4.9638   18.6510 C   0  0  0  0  0  0  0  0  0  0  0  0
    5.5935   -8.6419   17.4234 C   0  0  0  0  0  0  0  0  0  0  0  0
   13.0726   -4.6648   23.3394 O   0  0  0  0  0  0  0  0  0  0  0  0
    8.5955   -6.0705   17.3996 C   0  0  0  0  0  0  0  0  0  0  0  0
    4.6223   -8.3832   16.5030 C   0  0  0  0  0  0  0  0  0  0  0  0
   12.4690   -5.2624   19.9024 C   0  0  0  0  0  0  0  0  0  0  0  0
    3.2548   -9.9919   17.4189 C   0  0  0  0  0  0  0  0  0  0  0  0
   12.4767   -4.7393   22.1790 C   0  0  0  0  0  0  0  0  0  0  0  0
    7.8593   -5.3772   15.3569 N   0  0  0  0  0  0  0  0  0  0  0  0
    7.4412   -6.9038   16.9283 C   0  0  0  0  0  0  0  0  0  0  0  0
  1 21  4  0
  1 23  4  0
  2  5  1  0
  2 13  4  0
  2 16  4  0
  3  6  4  0
  3  7  4  0
  4 13  4  0
  4 19  4  0
  4 24  4  0
  6 23  4  0
  7 16  1  0
  7 21  4  0
  8 18  1  0
  9 20  4  0
  9 22  4  0
 10 17  1  0
 10 25  1  0
 11 16  4  0
 11 19  4  0
 12 15  4  0
 12 22  4  0
 14 24  4  0
 14 25  4  0
 15 17  4  0
 17 20  4  0
 18 23  1  0
 19 25  4  0
M  END
$$$$

 Created by Python create_sdf_string function

 25 28  0  0  0  0  0  0  0  0999 V2000
   13.1533   -5.2399   21.0682 C   0  0  0  0  0  0  0  0  0  0  0  0
   10.4729   -4.0295   17.6135 C   0  0  0  0  0  0  0  0  0  0  0  0
   10.4789   -4.3641   20.9564 C   0  0  0  0  0  0  0  0  0  0  0  0
    8.7421   -5.1412   16.3650 C   0  0  0  0  0  0  0  0  0  0  0  0
   11.4353   -2.9204   17.8044 C   0  0  0  0  0  0  0  0  0  0  0  0
   11.1529   -4.3028   22.1277 C   0  0  0  0  0  0  0  0  0  0  0  0
   11.1290   -4.8502   19.8052 C   0  0  0  0  0  0  0  0  0  0  0  0
   12.4329   -4.2159   24.4224 C   0  0  0  0  0  0  0  0  0  0  0  0
    3.4740   -9.0387   16.5022 C   0  0  0  0  0  0  0  0  0  0  0  0
    6.8384   -7.9290   17.5282 N   0  0  0  0  0  0  0  0  0  0  0  0
    9.4126   -5.9853   18.4899 C   0  0  0  0  0  0  0  0  0  0  0  0
    4.2064  -10.3242   18.3302 C   0  0  0  0  0  0  0  0  0  0  0  0
    9.6599   -4.1551   16.4796 N   0  0  0  0  0  0  0  0  0  0  0  0
    7.0644   -6.4612   15.7375 N   0  0  0  0  0  0  0  0  0  0  0  0
    5.3549   -9.6322   18.3190 C   0  0  0  0  0  0  0  0  0  0  0  0
   10.3704   -4.9638   18.6510 C   0  0  0  0  0  0  0  0  0  0  0  0
    5.5935   -8.6419   17.4234 C   0  0  0  0  0  0  0  0  0  0  0  0
   13.0726   -4.6648   23.3394 O   0  0  0  0  0  0  0  0  0  0  0  0
    8.5955   -6.0705   17.3996 C   0  0  0  0  0  0  0  0  0  0  0  0
    4.6223   -8.3832   16.5030 C   0  0  0  0  0  0  0  0  0  0  0  0
   12.4690   -5.2624   19.9024 C   0  0  0  0  0  0  0  0  0  0  0  0
    3.2548   -9.9919   17.4189 C   0  0  0  0  0  0  0  0  0  0  0  0
   12.4767   -4.7393   22.1790 C   0  0  0  0  0  0  0  0  0  0  0  0
    7.8593   -5.3772   15.3569 N   0  0  0  0  0  0  0  0  0  0  0  0
    7.4412   -6.9038   16.9283 C   0  0  0  0  0  0  0  0  0  0  0  0
  1 21  4  0
  1 23  4  0
  2  5  1  0
  2 13  4  0
  2 16  4  0
  3  6  4  0
  3  7  4  0
  4 13  4  0
  4 19  4  0
  4 24  4  0
  6 23  4  0
  7 16  1  0
  7 21  4  0
  8 18  1  0
  9 20  4  0
  9 22  4  0
 10 17  1  0
 10 25  1  0
 11 16  4  0
 11 19  4  0
 12 15  4  0
 12 22  4  0
 14 24  4  0
 14 25  4  0
 15 17  4  0
 17 20  4  0
 18 23  1  0
 19 25  4  0
M  END
$$$$

 Created by Python create_sdf_string function

 25 28  0  0  0  0  0  0  0  0999 V2000
   13.1533   -5.2399   21.0682 C   0  0  0  0  0  0  0  0  0  0  0  0
   10.4729   -4.0295   17.6135 C   0  0  0  0  0  0  0  0  0  0  0  0
   10.4789   -4.3641   20.9564 C   0  0  0  0  0  0  0  0  0  0  0  0
    8.7421   -5.1412   16.3650 C   0  0  0  0  0  0  0  0  0  0  0  0
   11.4353   -2.9204   17.8044 C   0  0  0  0  0  0  0  0  0  0  0  0
   11.1529   -4.3028   22.1277 C   0  0  0  0  0  0  0  0  0  0  0  0
   11.1290   -4.8502   19.8052 C   0  0  0  0  0  0  0  0  0  0  0  0
   12.4329   -4.2159   24.4224 C   0  0  0  0  0  0  0  0  0  0  0  0
    3.4740   -9.0387   16.5022 C   0  0  0  0  0  0  0  0  0  0  0  0
    6.8384   -7.9290   17.5282 N   0  0  0  0  0  0  0  0  0  0  0  0
    9.4126   -5.9853   18.4899 C   0  0  0  0  0  0  0  0  0  0  0  0
    4.2064  -10.3242   18.3302 C   0  0  0  0  0  0  0  0  0  0  0  0
    9.6599   -4.1551   16.4796 N   0  0  0  0  0  0  0  0  0  0  0  0
    7.0644   -6.4612   15.7375 N   0  0  0  0  0  0  0  0  0  0  0  0
    5.3549   -9.6322   18.3190 C   0  0  0  0  0  0  0  0  0  0  0  0
   10.3704   -4.9638   18.6510 C   0  0  0  0  0  0  0  0  0  0  0  0
    5.5935   -8.6419   17.4234 C   0  0  0  0  0  0  0  0  0  0  0  0
   13.0726   -4.6648   23.3394 O   0  0  0  0  0  0  0  0  0  0  0  0
    8.5955   -6.0705   17.3996 C   0  0  0  0  0  0  0  0  0  0  0  0
    4.6223   -8.3832   16.5030 C   0  0  0  0  0  0  0  0  0  0  0  0
   12.4690   -5.2624   19.9024 C   0  0  0  0  0  0  0  0  0  0  0  0
    3.2548   -9.9919   17.4189 C   0  0  0  0  0  0  0  0  0  0  0  0
   12.4767   -4.7393   22.1790 C   0  0  0  0  0  0  0  0  0  0  0  0
    7.8593   -5.3772   15.3569 N   0  0  0  0  0  0  0  0  0  0  0  0
    7.4412   -6.9038   16.9283 C   0  0  0  0  0  0  0  0  0  0  0  0
  1 21  4  0
  1 23  4  0
  2  5  1  0
  2 13  4  0
  2 16  4  0
  3  6  4  0
  3  7  4  0
  4 13  4  0
  4 19  4  0
  4 24  4  0
  6 23  4  0
  7 16  1  0
  7 21  4  0
  8 18  1  0
  9 20  4  0
  9 22  4  0
 10 17  1  0
 10 25  1  0
 11 16  4  0
 11 19  4  0
 12 15  4  0
 12 22  4  0
 14 24  4  0
 14 25  4  0
 15 17  4  0
 17 20  4  0
 18 23  1  0
 19 25  4  0
M  END
$$$$

 Created by Python create_sdf_string function

 25 28  0  0  0  0  0  0  0  0999 V2000
   13.1533   -5.2399   21.0682 C   0  0  0  0  0  0  0  0  0  0  0  0
   10.4729   -4.0295   17.6135 C   0  0  0  0  0  0  0  0  0  0  0  0
   10.4789   -4.3641   20.9564 C   0  0  0  0  0  0  0  0  0  0  0  0
    8.7421   -5.1412   16.3650 C   0  0  0  0  0  0  0  0  0  0  0  0
   11.4353   -2.9204   17.8044 C   0  0  0  0  0  0  0  0  0  0  0  0
   11.1529   -4.3028   22.1277 C   0  0  0  0  0  0  0  0  0  0  0  0
   11.1290   -4.8502   19.8052 C   0  0  0  0  0  0  0  0  0  0  0  0
   12.4329   -4.2159   24.4224 C   0  0  0  0  0  0  0  0  0  0  0  0
    3.4740   -9.0387   16.5022 C   0  0  0  0  0  0  0  0  0  0  0  0
    6.8384   -7.9290   17.5282 N   0  0  0  0  0  0  0  0  0  0  0  0
    9.4126   -5.9853   18.4899 C   0  0  0  0  0  0  0  0  0  0  0  0
    4.2064  -10.3242   18.3302 C   0  0  0  0  0  0  0  0  0  0  0  0
    9.6599   -4.1551   16.4796 N   0  0  0  0  0  0  0  0  0  0  0  0
    7.0644   -6.4612   15.7375 N   0  0  0  0  0  0  0  0  0  0  0  0
    5.3549   -9.6322   18.3190 C   0  0  0  0  0  0  0  0  0  0  0  0
   10.3704   -4.9638   18.6510 C   0  0  0  0  0  0  0  0  0  0  0  0
    5.5935   -8.6419   17.4234 C   0  0  0  0  0  0  0  0  0  0  0  0
   13.0726   -4.6648   23.3394 O   0  0  0  0  0  0  0  0  0  0  0  0
    8.5955   -6.0705   17.3996 C   0  0  0  0  0  0  0  0  0  0  0  0
    4.6223   -8.3832   16.5030 C   0  0  0  0  0  0  0  0  0  0  0  0
   12.4690   -5.2624   19.9024 C   0  0  0  0  0  0  0  0  0  0  0  0
    3.2548   -9.9919   17.4189 C   0  0  0  0  0  0  0  0  0  0  0  0
   12.4767   -4.7393   22.1790 C   0  0  0  0  0  0  0  0  0  0  0  0
    7.8593   -5.3772   15.3569 N   0  0  0  0  0  0  0  0  0  0  0  0
    7.4412   -6.9038   16.9283 C   0  0  0  0  0  0  0  0  0  0  0  0
  1 21  4  0
  1 23  4  0
  2  5  1  0
  2 13  4  0
  2 16  4  0
  3  6  4  0
  3  7  4  0
  4 13  4  0
  4 19  4  0
  4 24  4  0
  6 23  4  0
  7 16  1  0
  7 21  4  0
  8 18  1  0
  9 20  4  0
  9 22  4  0
 10 17  1  0
 10 25  1  0
 11 16  4  0
 11 19  4  0
 12 15  4  0
 12 22  4  0
 14 24  4  0
 14 25  4  0
 15 17  4  0
 17 20  4  0
 18 23  1  0
 19 25  4  0
M  END
$$$$

 Created by Python create_sdf_string function

 25 28  0  0  0  0  0  0  0  0999 V2000
   13.1533   -5.2399   21.0682 C   0  0  0  0  0  0  0  0  0  0  0  0
   10.4729   -4.0295   17.6135 C   0  0  0  0  0  0  0  0  0  0  0  0
   10.4789   -4.3641   20.9564 C   0  0  0  0  0  0  0  0  0  0  0  0
    8.7421   -5.1412   16.3650 C   0  0  0  0  0  0  0  0  0  0  0  0
   11.4353   -2.9204   17.8044 C   0  0  0  0  0  0  0  0  0  0  0  0
   11.1529   -4.3028   22.1277 C   0  0  0  0  0  0  0  0  0  0  0  0
   11.1290   -4.8502   19.8052 C   0  0  0  0  0  0  0  0  0  0  0  0
   12.4329   -4.2159   24.4224 C   0  0  0  0  0  0  0  0  0  0  0  0
    3.4740   -9.0387   16.5022 C   0  0  0  0  0  0  0  0  0  0  0  0
    6.8384   -7.9290   17.5282 N   0  0  0  0  0  0  0  0  0  0  0  0
    9.4126   -5.9853   18.4899 C   0  0  0  0  0  0  0  0  0  0  0  0
    4.2064  -10.3242   18.3302 C   0  0  0  0  0  0  0  0  0  0  0  0
    9.6599   -4.1551   16.4796 N   0  0  0  0  0  0  0  0  0  0  0  0
    7.0644   -6.4612   15.7375 N   0  0  0  0  0  0  0  0  0  0  0  0
    5.3549   -9.6322   18.3190 C   0  0  0  0  0  0  0  0  0  0  0  0
   10.3704   -4.9638   18.6510 C   0  0  0  0  0  0  0  0  0  0  0  0
    5.5935   -8.6419   17.4234 C   0  0  0  0  0  0  0  0  0  0  0  0
   13.0726   -4.6648   23.3394 O   0  0  0  0  0  0  0  0  0  0  0  0
    8.5955   -6.0705   17.3996 C   0  0  0  0  0  0  0  0  0  0  0  0
    4.6223   -8.3832   16.5030 C   0  0  0  0  0  0  0  0  0  0  0  0
   12.4690   -5.2624   19.9024 C   0  0  0  0  0  0  0  0  0  0  0  0
    3.2548   -9.9919   17.4189 C   0  0  0  0  0  0  0  0  0  0  0  0
   12.4767   -4.7393   22.1790 C   0  0  0  0  0  0  0  0  0  0  0  0
    7.8593   -5.3772   15.3569 N   0  0  0  0  0  0  0  0  0  0  0  0
    7.4412   -6.9038   16.9283 C   0  0  0  0  0  0  0  0  0  0  0  0
  1 21  4  0
  1 23  4  0
  2  5  1  0
  2 13  4  0
  2 16  4  0
  3  6  4  0
  3  7  4  0
  4 13  4  0
  4 19  4  0
  4 24  4  0
  6 23  4  0
  7 16  1  0
  7 21  4  0
  8 18  1  0
  9 20  4  0
  9 22  4  0
 10 17  1  0
 10 25  1  0
 11 16  4  0
 11 19  4  0
 12 15  4  0
 12 22  4  0
 14 24  4  0
 14 25  4  0
 15 17  4  0
 17 20  4  0
 18 23  1  0
 19 25  4  0
M  END
$$$$

 Created by Python create_sdf_string function

 25 28  0  0  0  0  0  0  0  0999 V2000
   13.1533   -5.2399   21.0682 C   0  0  0  0  0  0  0  0  0  0  0  0
   10.4729   -4.0295   17.6135 C   0  0  0  0  0  0  0  0  0  0  0  0
   10.4789   -4.3641   20.9564 C   0  0  0  0  0  0  0  0  0  0  0  0
    8.7421   -5.1412   16.3650 C   0  0  0  0  0  0  0  0  0  0  0  0
   11.4353   -2.9204   17.8044 C   0  0  0  0  0  0  0  0  0  0  0  0
   11.1529   -4.3028   22.1277 C   0  0  0  0  0  0  0  0  0  0  0  0
   11.1290   -4.8502   19.8052 C   0  0  0  0  0  0  0  0  0  0  0  0
   12.4329   -4.2159   24.4224 C   0  0  0  0  0  0  0  0  0  0  0  0
    3.4740   -9.0387   16.5022 C   0  0  0  0  0  0  0  0  0  0  0  0
    6.8384   -7.9290   17.5282 N   0  0  0  0  0  0  0  0  0  0  0  0
    9.4126   -5.9853   18.4899 C   0  0  0  0  0  0  0  0  0  0  0  0
    4.2064  -10.3242   18.3302 C   0  0  0  0  0  0  0  0  0  0  0  0
    9.6599   -4.1551   16.4796 N   0  0  0  0  0  0  0  0  0  0  0  0
    7.0644   -6.4612   15.7375 N   0  0  0  0  0  0  0  0  0  0  0  0
    5.3549   -9.6322   18.3190 C   0  0  0  0  0  0  0  0  0  0  0  0
   10.3704   -4.9638   18.6510 C   0  0  0  0  0  0  0  0  0  0  0  0
    5.5935   -8.6419   17.4234 C   0  0  0  0  0  0  0  0  0  0  0  0
   13.0726   -4.6648   23.3394 O   0  0  0  0  0  0  0  0  0  0  0  0
    8.5955   -6.0705   17.3996 C   0  0  0  0  0  0  0  0  0  0  0  0
    4.6223   -8.3832   16.5030 C   0  0  0  0  0  0  0  0  0  0  0  0
   12.4690   -5.2624   19.9024 C   0  0  0  0  0  0  0  0  0  0  0  0
    3.2548   -9.9919   17.4189 C   0  0  0  0  0  0  0  0  0  0  0  0
   12.4767   -4.7393   22.1790 C   0  0  0  0  0  0  0  0  0  0  0  0
    7.8593   -5.3772   15.3569 N   0  0  0  0  0  0  0  0  0  0  0  0
    7.4412   -6.9038   16.9283 C   0  0  0  0  0  0  0  0  0  0  0  0
  1 21  4  0
  1 23  4  0
  2  5  1  0
  2 13  4  0
  2 16  4  0
  3  6  4  0
  3  7  4  0
  4 13  4  0
  4 19  4  0
  4 24  4  0
  6 23  4  0
  7 16  1  0
  7 21  4  0
  8 18  1  0
  9 20  4  0
  9 22  4  0
 10 17  1  0
 10 25  1  0
 11 16  4  0
 11 19  4  0
 12 15  4  0
 12 22  4  0
 14 24  4  0
 14 25  4  0
 15 17  4  0
 17 20  4  0
 18 23  1  0
 19 25  4  0
M  END
$$$$

 Created by Python create_sdf_string function

 25 28  0  0  0  0  0  0  0  0999 V2000
   13.1533   -5.2399   21.0682 C   0  0  0  0  0  0  0  0  0  0  0  0
   10.4729   -4.0295   17.6135 C   0  0  0  0  0  0  0  0  0  0  0  0
   10.4789   -4.3641   20.9564 C   0  0  0  0  0  0  0  0  0  0  0  0
    8.7421   -5.1412   16.3650 C   0  0  0  0  0  0  0  0  0  0  0  0
   11.4353   -2.9204   17.8044 C   0  0  0  0  0  0  0  0  0  0  0  0
   11.1529   -4.3028   22.1277 C   0  0  0  0  0  0  0  0  0  0  0  0
   11.1290   -4.8502   19.8052 C   0  0  0  0  0  0  0  0  0  0  0  0
   12.4329   -4.2159   24.4224 C   0  0  0  0  0  0  0  0  0  0  0  0
    3.4740   -9.0387   16.5022 C   0  0  0  0  0  0  0  0  0  0  0  0
    6.8384   -7.9290   17.5282 N   0  0  0  0  0  0  0  0  0  0  0  0
    9.4126   -5.9853   18.4899 C   0  0  0  0  0  0  0  0  0  0  0  0
    4.2064  -10.3242   18.3302 C   0  0  0  0  0  0  0  0  0  0  0  0
    9.6599   -4.1551   16.4796 N   0  0  0  0  0  0  0  0  0  0  0  0
    7.0644   -6.4612   15.7375 N   0  0  0  0  0  0  0  0  0  0  0  0
    5.3549   -9.6322   18.3190 C   0  0  0  0  0  0  0  0  0  0  0  0
   10.3704   -4.9638   18.6510 C   0  0  0  0  0  0  0  0  0  0  0  0
    5.5935   -8.6419   17.4234 C   0  0  0  0  0  0  0  0  0  0  0  0
   13.0726   -4.6648   23.3394 O   0  0  0  0  0  0  0  0  0  0  0  0
    8.5955   -6.0705   17.3996 C   0  0  0  0  0  0  0  0  0  0  0  0
    4.6223   -8.3832   16.5030 C   0  0  0  0  0  0  0  0  0  0  0  0
   12.4690   -5.2624   19.9024 C   0  0  0  0  0  0  0  0  0  0  0  0
    3.2548   -9.9919   17.4189 C   0  0  0  0  0  0  0  0  0  0  0  0
   12.4767   -4.7393   22.1790 C   0  0  0  0  0  0  0  0  0  0  0  0
    7.8593   -5.3772   15.3569 N   0  0  0  0  0  0  0  0  0  0  0  0
    7.4412   -6.9038   16.9283 C   0  0  0  0  0  0  0  0  0  0  0  0
  1 21  4  0
  1 23  4  0
  2  5  1  0
  2 13  4  0
  2 16  4  0
  3  6  4  0
  3  7  4  0
  4 13  4  0
  4 19  4  0
  4 24  4  0
  6 23  4  0
  7 16  1  0
  7 21  4  0
  8 18  1  0
  9 20  4  0
  9 22  4  0
 10 17  1  0
 10 25  1  0
 11 16  4  0
 11 19  4  0
 12 15  4  0
 12 22  4  0
 14 24  4  0
 14 25  4  0
 15 17  4  0
 17 20  4  0
 18 23  1  0
 19 25  4  0
M  END
$$$$

 Created by Python create_sdf_string function

 25 28  0  0  0  0  0  0  0  0999 V2000
   13.1533   -5.2399   21.0682 C   0  0  0  0  0  0  0  0  0  0  0  0
   10.4729   -4.0295   17.6135 C   0  0  0  0  0  0  0  0  0  0  0  0
   10.4789   -4.3641   20.9564 C   0  0  0  0  0  0  0  0  0  0  0  0
    8.7421   -5.1412   16.3650 C   0  0  0  0  0  0  0  0  0  0  0  0
   11.4353   -2.9204   17.8044 C   0  0  0  0  0  0  0  0  0  0  0  0
   11.1529   -4.3028   22.1277 C   0  0  0  0  0  0  0  0  0  0  0  0
   11.1290   -4.8502   19.8052 C   0  0  0  0  0  0  0  0  0  0  0  0
   12.4329   -4.2159   24.4224 C   0  0  0  0  0  0  0  0  0  0  0  0
    3.4740   -9.0387   16.5022 C   0  0  0  0  0  0  0  0  0  0  0  0
    6.8384   -7.9290   17.5282 N   0  0  0  0  0  0  0  0  0  0  0  0
    9.4126   -5.9853   18.4899 C   0  0  0  0  0  0  0  0  0  0  0  0
    4.2064  -10.3242   18.3302 C   0  0  0  0  0  0  0  0  0  0  0  0
    9.6599   -4.1551   16.4796 N   0  0  0  0  0  0  0  0  0  0  0  0
    7.0644   -6.4612   15.7375 N   0  0  0  0  0  0  0  0  0  0  0  0
    5.3549   -9.6322   18.3190 C   0  0  0  0  0  0  0  0  0  0  0  0
   10.3704   -4.9638   18.6510 C   0  0  0  0  0  0  0  0  0  0  0  0
    5.5935   -8.6419   17.4234 C   0  0  0  0  0  0  0  0  0  0  0  0
   13.0726   -4.6648   23.3394 O   0  0  0  0  0  0  0  0  0  0  0  0
    8.5955   -6.0705   17.3996 C   0  0  0  0  0  0  0  0  0  0  0  0
    4.6223   -8.3832   16.5030 C   0  0  0  0  0  0  0  0  0  0  0  0
   12.4690   -5.2624   19.9024 C   0  0  0  0  0  0  0  0  0  0  0  0
    3.2548   -9.9919   17.4189 C   0  0  0  0  0  0  0  0  0  0  0  0
   12.4767   -4.7393   22.1790 C   0  0  0  0  0  0  0  0  0  0  0  0
    7.8593   -5.3772   15.3569 N   0  0  0  0  0  0  0  0  0  0  0  0
    7.4412   -6.9038   16.9283 C   0  0  0  0  0  0  0  0  0  0  0  0
  1 21  4  0
  1 23  4  0
  2  5  1  0
  2 13  4  0
  2 16  4  0
  3  6  4  0
  3  7  4  0
  4 13  4  0
  4 19  4  0
  4 24  4  0
  6 23  4  0
  7 16  1  0
  7 21  4  0
  8 18  1  0
  9 20  4  0
  9 22  4  0
 10 17  1  0
 10 25  1  0
 11 16  4  0
 11 19  4  0
 12 15  4  0
 12 22  4  0
 14 24  4  0
 14 25  4  0
 15 17  4  0
 17 20  4  0
 18 23  1  0
 19 25  4  0
M  END
$$$$

 Created by Python create_sdf_string function

 25 28  0  0  0  0  0  0  0  0999 V2000
   13.1533   -5.2399   21.0682 C   0  0  0  0  0  0  0  0  0  0  0  0
   10.4729   -4.0295   17.6135 C   0  0  0  0  0  0  0  0  0  0  0  0
   10.4789   -4.3641   20.9564 C   0  0  0  0  0  0  0  0  0  0  0  0
    8.7421   -5.1412   16.3650 C   0  0  0  0  0  0  0  0  0  0  0  0
   11.4353   -2.9204   17.8044 C   0  0  0  0  0  0  0  0  0  0  0  0
   11.1529   -4.3028   22.1277 C   0  0  0  0  0  0  0  0  0  0  0  0
   11.1290   -4.8502   19.8052 C   0  0  0  0  0  0  0  0  0  0  0  0
   12.4329   -4.2159   24.4224 C   0  0  0  0  0  0  0  0  0  0  0  0
    3.4740   -9.0387   16.5022 C   0  0  0  0  0  0  0  0  0  0  0  0
    6.8384   -7.9290   17.5282 N   0  0  0  0  0  0  0  0  0  0  0  0
    9.4126   -5.9853   18.4899 C   0  0  0  0  0  0  0  0  0  0  0  0
    4.2064  -10.3242   18.3302 C   0  0  0  0  0  0  0  0  0  0  0  0
    9.6599   -4.1551   16.4796 N   0  0  0  0  0  0  0  0  0  0  0  0
    7.0644   -6.4612   15.7375 N   0  0  0  0  0  0  0  0  0  0  0  0
    5.3549   -9.6322   18.3190 C   0  0  0  0  0  0  0  0  0  0  0  0
   10.3704   -4.9638   18.6510 C   0  0  0  0  0  0  0  0  0  0  0  0
    5.5935   -8.6419   17.4234 C   0  0  0  0  0  0  0  0  0  0  0  0
   13.0726   -4.6648   23.3394 O   0  0  0  0  0  0  0  0  0  0  0  0
    8.5955   -6.0705   17.3996 C   0  0  0  0  0  0  0  0  0  0  0  0
    4.6223   -8.3832   16.5030 C   0  0  0  0  0  0  0  0  0  0  0  0
   12.4690   -5.2624   19.9024 C   0  0  0  0  0  0  0  0  0  0  0  0
    3.2548   -9.9919   17.4189 C   0  0  0  0  0  0  0  0  0  0  0  0
   12.4767   -4.7393   22.1790 C   0  0  0  0  0  0  0  0  0  0  0  0
    7.8593   -5.3772   15.3569 N   0  0  0  0  0  0  0  0  0  0  0  0
    7.4412   -6.9038   16.9283 C   0  0  0  0  0  0  0  0  0  0  0  0
  1 21  4  0
  1 23  4  0
  2  5  1  0
  2 13  4  0
  2 16  4  0
  3  6  4  0
  3  7  4  0
  4 13  4  0
  4 19  4  0
  4 24  4  0
  6 23  4  0
  7 16  1  0
  7 21  4  0
  8 18  1  0
  9 20  4  0
  9 22  4  0
 10 17  1  0
 10 25  1  0
 11 16  4  0
 11 19  4  0
 12 15  4  0
 12 22  4  0
 14 24  4  0
 14 25  4  0
 15 17  4  0
 17 20  4  0
 18 23  1  0
 19 25  4  0
M  END
$$$$

 Created by Python create_sdf_string function

 25 28  0  0  0  0  0  0  0  0999 V2000
   13.1533   -5.2399   21.0682 C   0  0  0  0  0  0  0  0  0  0  0  0
   10.4729   -4.0295   17.6135 C   0  0  0  0  0  0  0  0  0  0  0  0
   10.4789   -4.3641   20.9564 C   0  0  0  0  0  0  0  0  0  0  0  0
    8.7421   -5.1412   16.3650 C   0  0  0  0  0  0  0  0  0  0  0  0
   11.4353   -2.9204   17.8044 C   0  0  0  0  0  0  0  0  0  0  0  0
   11.1529   -4.3028   22.1277 C   0  0  0  0  0  0  0  0  0  0  0  0
   11.1290   -4.8502   19.8052 C   0  0  0  0  0  0  0  0  0  0  0  0
   12.4329   -4.2159   24.4224 C   0  0  0  0  0  0  0  0  0  0  0  0
    3.4740   -9.0387   16.5022 C   0  0  0  0  0  0  0  0  0  0  0  0
    6.8384   -7.9290   17.5282 N   0  0  0  0  0  0  0  0  0  0  0  0
    9.4126   -5.9853   18.4899 C   0  0  0  0  0  0  0  0  0  0  0  0
    4.2064  -10.3242   18.3302 C   0  0  0  0  0  0  0  0  0  0  0  0
    9.6599   -4.1551   16.4796 N   0  0  0  0  0  0  0  0  0  0  0  0
    7.0644   -6.4612   15.7375 N   0  0  0  0  0  0  0  0  0  0  0  0
    5.3549   -9.6322   18.3190 C   0  0  0  0  0  0  0  0  0  0  0  0
   10.3704   -4.9638   18.6510 C   0  0  0  0  0  0  0  0  0  0  0  0
    5.5935   -8.6419   17.4234 C   0  0  0  0  0  0  0  0  0  0  0  0
   13.0726   -4.6648   23.3394 O   0  0  0  0  0  0  0  0  0  0  0  0
    8.5955   -6.0705   17.3996 C   0  0  0  0  0  0  0  0  0  0  0  0
    4.6223   -8.3832   16.5030 C   0  0  0  0  0  0  0  0  0  0  0  0
   12.4690   -5.2624   19.9024 C   0  0  0  0  0  0  0  0  0  0  0  0
    3.2548   -9.9919   17.4189 C   0  0  0  0  0  0  0  0  0  0  0  0
   12.4767   -4.7393   22.1790 C   0  0  0  0  0  0  0  0  0  0  0  0
    7.8593   -5.3772   15.3569 N   0  0  0  0  0  0  0  0  0  0  0  0
    7.4412   -6.9038   16.9283 C   0  0  0  0  0  0  0  0  0  0  0  0
  1 21  4  0
  1 23  4  0
  2  5  1  0
  2 13  4  0
  2 16  4  0
  3  6  4  0
  3  7  4  0
  4 13  4  0
  4 19  4  0
  4 24  4  0
  6 23  4  0
  7 16  1  0
  7 21  4  0
  8 18  1  0
  9 20  4  0
  9 22  4  0
 10 17  1  0
 10 25  1  0
 11 16  4  0
 11 19  4  0
 12 15  4  0
 12 22  4  0
 14 24  4  0
 14 25  4  0
 15 17  4  0
 17 20  4  0
 18 23  1  0
 19 25  4  0
M  END
$$$$

 Created by Python create_sdf_string function

 25 28  0  0  0  0  0  0  0  0999 V2000
   13.1533   -5.2399   21.0682 C   0  0  0  0  0  0  0  0  0  0  0  0
   10.4729   -4.0295   17.6135 C   0  0  0  0  0  0  0  0  0  0  0  0
   10.4789   -4.3641   20.9564 C   0  0  0  0  0  0  0  0  0  0  0  0
    8.7421   -5.1412   16.3650 C   0  0  0  0  0  0  0  0  0  0  0  0
   11.4353   -2.9204   17.8044 C   0  0  0  0  0  0  0  0  0  0  0  0
   11.1529   -4.3028   22.1277 C   0  0  0  0  0  0  0  0  0  0  0  0
   11.1290   -4.8502   19.8052 C   0  0  0  0  0  0  0  0  0  0  0  0
   12.4329   -4.2159   24.4224 C   0  0  0  0  0  0  0  0  0  0  0  0
    3.4740   -9.0387   16.5022 C   0  0  0  0  0  0  0  0  0  0  0  0
    6.8384   -7.9290   17.5282 N   0  0  0  0  0  0  0  0  0  0  0  0
    9.4126   -5.9853   18.4899 C   0  0  0  0  0  0  0  0  0  0  0  0
    4.2064  -10.3242   18.3302 C   0  0  0  0  0  0  0  0  0  0  0  0
    9.6599   -4.1551   16.4796 N   0  0  0  0  0  0  0  0  0  0  0  0
    7.0644   -6.4612   15.7375 N   0  0  0  0  0  0  0  0  0  0  0  0
    5.3549   -9.6322   18.3190 C   0  0  0  0  0  0  0  0  0  0  0  0
   10.3704   -4.9638   18.6510 C   0  0  0  0  0  0  0  0  0  0  0  0
    5.5935   -8.6419   17.4234 C   0  0  0  0  0  0  0  0  0  0  0  0
   13.0726   -4.6648   23.3394 O   0  0  0  0  0  0  0  0  0  0  0  0
    8.5955   -6.0705   17.3996 C   0  0  0  0  0  0  0  0  0  0  0  0
    4.6223   -8.3832   16.5030 C   0  0  0  0  0  0  0  0  0  0  0  0
   12.4690   -5.2624   19.9024 C   0  0  0  0  0  0  0  0  0  0  0  0
    3.2548   -9.9919   17.4189 C   0  0  0  0  0  0  0  0  0  0  0  0
   12.4767   -4.7393   22.1790 C   0  0  0  0  0  0  0  0  0  0  0  0
    7.8593   -5.3772   15.3569 N   0  0  0  0  0  0  0  0  0  0  0  0
    7.4412   -6.9038   16.9283 C   0  0  0  0  0  0  0  0  0  0  0  0
  1 21  4  0
  1 23  4  0
  2  5  1  0
  2 13  4  0
  2 16  4  0
  3  6  4  0
  3  7  4  0
  4 13  4  0
  4 19  4  0
  4 24  4  0
  6 23  4  0
  7 16  1  0
  7 21  4  0
  8 18  1  0
  9 20  4  0
  9 22  4  0
 10 17  1  0
 10 25  1  0
 11 16  4  0
 11 19  4  0
 12 15  4  0
 12 22  4  0
 14 24  4  0
 14 25  4  0
 15 17  4  0
 17 20  4  0
 18 23  1  0
 19 25  4  0
M  END
$$$$

 Created by Python create_sdf_string function

 25 28  0  0  0  0  0  0  0  0999 V2000
   13.1533   -5.2399   21.0682 C   0  0  0  0  0  0  0  0  0  0  0  0
   10.4729   -4.0295   17.6135 C   0  0  0  0  0  0  0  0  0  0  0  0
   10.4789   -4.3641   20.9564 C   0  0  0  0  0  0  0  0  0  0  0  0
    8.7421   -5.1412   16.3650 C   0  0  0  0  0  0  0  0  0  0  0  0
   11.4353   -2.9204   17.8044 C   0  0  0  0  0  0  0  0  0  0  0  0
   11.1529   -4.3028   22.1277 C   0  0  0  0  0  0  0  0  0  0  0  0
   11.1290   -4.8502   19.8052 C   0  0  0  0  0  0  0  0  0  0  0  0
   12.4329   -4.2159   24.4224 C   0  0  0  0  0  0  0  0  0  0  0  0
    3.4740   -9.0387   16.5022 C   0  0  0  0  0  0  0  0  0  0  0  0
    6.8384   -7.9290   17.5282 N   0  0  0  0  0  0  0  0  0  0  0  0
    9.4126   -5.9853   18.4899 C   0  0  0  0  0  0  0  0  0  0  0  0
    4.2064  -10.3242   18.3302 C   0  0  0  0  0  0  0  0  0  0  0  0
    9.6599   -4.1551   16.4796 N   0  0  0  0  0  0  0  0  0  0  0  0
    7.0644   -6.4612   15.7375 N   0  0  0  0  0  0  0  0  0  0  0  0
    5.3549   -9.6322   18.3190 C   0  0  0  0  0  0  0  0  0  0  0  0
   10.3704   -4.9638   18.6510 C   0  0  0  0  0  0  0  0  0  0  0  0
    5.5935   -8.6419   17.4234 C   0  0  0  0  0  0  0  0  0  0  0  0
   13.0726   -4.6648   23.3394 O   0  0  0  0  0  0  0  0  0  0  0  0
    8.5955   -6.0705   17.3996 C   0  0  0  0  0  0  0  0  0  0  0  0
    4.6223   -8.3832   16.5030 C   0  0  0  0  0  0  0  0  0  0  0  0
   12.4690   -5.2624   19.9024 C   0  0  0  0  0  0  0  0  0  0  0  0
    3.2548   -9.9919   17.4189 C   0  0  0  0  0  0  0  0  0  0  0  0
   12.4767   -4.7393   22.1790 C   0  0  0  0  0  0  0  0  0  0  0  0
    7.8593   -5.3772   15.3569 N   0  0  0  0  0  0  0  0  0  0  0  0
    7.4412   -6.9038   16.9283 C   0  0  0  0  0  0  0  0  0  0  0  0
  1 21  4  0
  1 23  4  0
  2  5  1  0
  2 13  4  0
  2 16  4  0
  3  6  4  0
  3  7  4  0
  4 13  4  0
  4 19  4  0
  4 24  4  0
  6 23  4  0
  7 16  1  0
  7 21  4  0
  8 18  1  0
  9 20  4  0
  9 22  4  0
 10 17  1  0
 10 25  1  0
 11 16  4  0
 11 19  4  0
 12 15  4  0
 12 22  4  0
 14 24  4  0
 14 25  4  0
 15 17  4  0
 17 20  4  0
 18 23  1  0
 19 25  4  0
M  END
$$$$

 Created by Python create_sdf_string function

 25 28  0  0  0  0  0  0  0  0999 V2000
   13.1533   -5.2399   21.0682 C   0  0  0  0  0  0  0  0  0  0  0  0
   10.4729   -4.0295   17.6135 C   0  0  0  0  0  0  0  0  0  0  0  0
   10.4789   -4.3641   20.9564 C   0  0  0  0  0  0  0  0  0  0  0  0
    8.7421   -5.1412   16.3650 C   0  0  0  0  0  0  0  0  0  0  0  0
   11.4353   -2.9204   17.8044 C   0  0  0  0  0  0  0  0  0  0  0  0
   11.1529   -4.3028   22.1277 C   0  0  0  0  0  0  0  0  0  0  0  0
   11.1290   -4.8502   19.8052 C   0  0  0  0  0  0  0  0  0  0  0  0
   12.4329   -4.2159   24.4224 C   0  0  0  0  0  0  0  0  0  0  0  0
    3.4740   -9.0387   16.5022 C   0  0  0  0  0  0  0  0  0  0  0  0
    6.8384   -7.9290   17.5282 N   0  0  0  0  0  0  0  0  0  0  0  0
    9.4126   -5.9853   18.4899 C   0  0  0  0  0  0  0  0  0  0  0  0
    4.2064  -10.3242   18.3302 C   0  0  0  0  0  0  0  0  0  0  0  0
    9.6599   -4.1551   16.4796 N   0  0  0  0  0  0  0  0  0  0  0  0
    7.0644   -6.4612   15.7375 N   0  0  0  0  0  0  0  0  0  0  0  0
    5.3549   -9.6322   18.3190 C   0  0  0  0  0  0  0  0  0  0  0  0
   10.3704   -4.9638   18.6510 C   0  0  0  0  0  0  0  0  0  0  0  0
    5.5935   -8.6419   17.4234 C   0  0  0  0  0  0  0  0  0  0  0  0
   13.0726   -4.6648   23.3394 O   0  0  0  0  0  0  0  0  0  0  0  0
    8.5955   -6.0705   17.3996 C   0  0  0  0  0  0  0  0  0  0  0  0
    4.6223   -8.3832   16.5030 C   0  0  0  0  0  0  0  0  0  0  0  0
   12.4690   -5.2624   19.9024 C   0  0  0  0  0  0  0  0  0  0  0  0
    3.2548   -9.9919   17.4189 C   0  0  0  0  0  0  0  0  0  0  0  0
   12.4767   -4.7393   22.1790 C   0  0  0  0  0  0  0  0  0  0  0  0
    7.8593   -5.3772   15.3569 N   0  0  0  0  0  0  0  0  0  0  0  0
    7.4412   -6.9038   16.9283 C   0  0  0  0  0  0  0  0  0  0  0  0
  1 21  4  0
  1 23  4  0
  2  5  1  0
  2 13  4  0
  2 16  4  0
  3  6  4  0
  3  7  4  0
  4 13  4  0
  4 19  4  0
  4 24  4  0
  6 23  4  0
  7 16  1  0
  7 21  4  0
  8 18  1  0
  9 20  4  0
  9 22  4  0
 10 17  1  0
 10 25  1  0
 11 16  4  0
 11 19  4  0
 12 15  4  0
 12 22  4  0
 14 24  4  0
 14 25  4  0
 15 17  4  0
 17 20  4  0
 18 23  1  0
 19 25  4  0
M  END
$$$$

 Created by Python create_sdf_string function

 25 28  0  0  0  0  0  0  0  0999 V2000
   13.1533   -5.2399   21.0682 C   0  0  0  0  0  0  0  0  0  0  0  0
   10.4729   -4.0295   17.6135 C   0  0  0  0  0  0  0  0  0  0  0  0
   10.4789   -4.3641   20.9564 C   0  0  0  0  0  0  0  0  0  0  0  0
    8.7421   -5.1412   16.3650 C   0  0  0  0  0  0  0  0  0  0  0  0
   11.4353   -2.9204   17.8044 C   0  0  0  0  0  0  0  0  0  0  0  0
   11.1529   -4.3028   22.1277 C   0  0  0  0  0  0  0  0  0  0  0  0
   11.1290   -4.8502   19.8052 C   0  0  0  0  0  0  0  0  0  0  0  0
   12.4329   -4.2159   24.4224 C   0  0  0  0  0  0  0  0  0  0  0  0
    3.4740   -9.0387   16.5022 C   0  0  0  0  0  0  0  0  0  0  0  0
    6.8384   -7.9290   17.5282 N   0  0  0  0  0  0  0  0  0  0  0  0
    9.4126   -5.9853   18.4899 C   0  0  0  0  0  0  0  0  0  0  0  0
    4.2064  -10.3242   18.3302 C   0  0  0  0  0  0  0  0  0  0  0  0
    9.6599   -4.1551   16.4796 N   0  0  0  0  0  0  0  0  0  0  0  0
    7.0644   -6.4612   15.7375 N   0  0  0  0  0  0  0  0  0  0  0  0
    5.3549   -9.6322   18.3190 C   0  0  0  0  0  0  0  0  0  0  0  0
   10.3704   -4.9638   18.6510 C   0  0  0  0  0  0  0  0  0  0  0  0
    5.5935   -8.6419   17.4234 C   0  0  0  0  0  0  0  0  0  0  0  0
   13.0726   -4.6648   23.3394 O   0  0  0  0  0  0  0  0  0  0  0  0
    8.5955   -6.0705   17.3996 C   0  0  0  0  0  0  0  0  0  0  0  0
    4.6223   -8.3832   16.5030 C   0  0  0  0  0  0  0  0  0  0  0  0
   12.4690   -5.2624   19.9024 C   0  0  0  0  0  0  0  0  0  0  0  0
    3.2548   -9.9919   17.4189 C   0  0  0  0  0  0  0  0  0  0  0  0
   12.4767   -4.7393   22.1790 C   0  0  0  0  0  0  0  0  0  0  0  0
    7.8593   -5.3772   15.3569 N   0  0  0  0  0  0  0  0  0  0  0  0
    7.4412   -6.9038   16.9283 C   0  0  0  0  0  0  0  0  0  0  0  0
  1 21  4  0
  1 23  4  0
  2  5  1  0
  2 13  4  0
  2 16  4  0
  3  6  4  0
  3  7  4  0
  4 13  4  0
  4 19  4  0
  4 24  4  0
  6 23  4  0
  7 16  1  0
  7 21  4  0
  8 18  1  0
  9 20  4  0
  9 22  4  0
 10 17  1  0
 10 25  1  0
 11 16  4  0
 11 19  4  0
 12 15  4  0
 12 22  4  0
 14 24  4  0
 14 25  4  0
 15 17  4  0
 17 20  4  0
 18 23  1  0
 19 25  4  0
M  END
$$$$

 Created by Python create_sdf_string function

 25 28  0  0  0  0  0  0  0  0999 V2000
   13.1533   -5.2399   21.0682 C   0  0  0  0  0  0  0  0  0  0  0  0
   10.4729   -4.0295   17.6135 C   0  0  0  0  0  0  0  0  0  0  0  0
   10.4789   -4.3641   20.9564 C   0  0  0  0  0  0  0  0  0  0  0  0
    8.7421   -5.1412   16.3650 C   0  0  0  0  0  0  0  0  0  0  0  0
   11.4353   -2.9204   17.8044 C   0  0  0  0  0  0  0  0  0  0  0  0
   11.1529   -4.3028   22.1277 C   0  0  0  0  0  0  0  0  0  0  0  0
   11.1290   -4.8502   19.8052 C   0  0  0  0  0  0  0  0  0  0  0  0
   12.4329   -4.2159   24.4224 C   0  0  0  0  0  0  0  0  0  0  0  0
    3.4740   -9.0387   16.5022 C   0  0  0  0  0  0  0  0  0  0  0  0
    6.8384   -7.9290   17.5282 N   0  0  0  0  0  0  0  0  0  0  0  0
    9.4126   -5.9853   18.4899 C   0  0  0  0  0  0  0  0  0  0  0  0
    4.2064  -10.3242   18.3302 C   0  0  0  0  0  0  0  0  0  0  0  0
    9.6599   -4.1551   16.4796 N   0  0  0  0  0  0  0  0  0  0  0  0
    7.0644   -6.4612   15.7375 N   0  0  0  0  0  0  0  0  0  0  0  0
    5.3549   -9.6322   18.3190 C   0  0  0  0  0  0  0  0  0  0  0  0
   10.3704   -4.9638   18.6510 C   0  0  0  0  0  0  0  0  0  0  0  0
    5.5935   -8.6419   17.4234 C   0  0  0  0  0  0  0  0  0  0  0  0
   13.0726   -4.6648   23.3394 O   0  0  0  0  0  0  0  0  0  0  0  0
    8.5955   -6.0705   17.3996 C   0  0  0  0  0  0  0  0  0  0  0  0
    4.6223   -8.3832   16.5030 C   0  0  0  0  0  0  0  0  0  0  0  0
   12.4690   -5.2624   19.9024 C   0  0  0  0  0  0  0  0  0  0  0  0
    3.2548   -9.9919   17.4189 C   0  0  0  0  0  0  0  0  0  0  0  0
   12.4767   -4.7393   22.1790 C   0  0  0  0  0  0  0  0  0  0  0  0
    7.8593   -5.3772   15.3569 N   0  0  0  0  0  0  0  0  0  0  0  0
    7.4412   -6.9038   16.9283 C   0  0  0  0  0  0  0  0  0  0  0  0
  1 21  4  0
  1 23  4  0
  2  5  1  0
  2 13  4  0
  2 16  4  0
  3  6  4  0
  3  7  4  0
  4 13  4  0
  4 19  4  0
  4 24  4  0
  6 23  4  0
  7 16  1  0
  7 21  4  0
  8 18  1  0
  9 20  4  0
  9 22  4  0
 10 17  1  0
 10 25  1  0
 11 16  4  0
 11 19  4  0
 12 15  4  0
 12 22  4  0
 14 24  4  0
 14 25  4  0
 15 17  4  0
 17 20  4  0
 18 23  1  0
 19 25  4  0
M  END
$$$$

 Created by Python create_sdf_string function

 25 28  0  0  0  0  0  0  0  0999 V2000
   13.1533   -5.2399   21.0682 C   0  0  0  0  0  0  0  0  0  0  0  0
   10.4729   -4.0295   17.6135 C   0  0  0  0  0  0  0  0  0  0  0  0
   10.4789   -4.3641   20.9564 C   0  0  0  0  0  0  0  0  0  0  0  0
    8.7421   -5.1412   16.3650 C   0  0  0  0  0  0  0  0  0  0  0  0
   11.4353   -2.9204   17.8044 C   0  0  0  0  0  0  0  0  0  0  0  0
   11.1529   -4.3028   22.1277 C   0  0  0  0  0  0  0  0  0  0  0  0
   11.1290   -4.8502   19.8052 C   0  0  0  0  0  0  0  0  0  0  0  0
   12.4329   -4.2159   24.4224 C   0  0  0  0  0  0  0  0  0  0  0  0
    3.4740   -9.0387   16.5022 C   0  0  0  0  0  0  0  0  0  0  0  0
    6.8384   -7.9290   17.5282 N   0  0  0  0  0  0  0  0  0  0  0  0
    9.4126   -5.9853   18.4899 C   0  0  0  0  0  0  0  0  0  0  0  0
    4.2064  -10.3242   18.3302 C   0  0  0  0  0  0  0  0  0  0  0  0
    9.6599   -4.1551   16.4796 N   0  0  0  0  0  0  0  0  0  0  0  0
    7.0644   -6.4612   15.7375 N   0  0  0  0  0  0  0  0  0  0  0  0
    5.3549   -9.6322   18.3190 C   0  0  0  0  0  0  0  0  0  0  0  0
   10.3704   -4.9638   18.6510 C   0  0  0  0  0  0  0  0  0  0  0  0
    5.5935   -8.6419   17.4234 C   0  0  0  0  0  0  0  0  0  0  0  0
   13.0726   -4.6648   23.3394 O   0  0  0  0  0  0  0  0  0  0  0  0
    8.5955   -6.0705   17.3996 C   0  0  0  0  0  0  0  0  0  0  0  0
    4.6223   -8.3832   16.5030 C   0  0  0  0  0  0  0  0  0  0  0  0
   12.4690   -5.2624   19.9024 C   0  0  0  0  0  0  0  0  0  0  0  0
    3.2548   -9.9919   17.4189 C   0  0  0  0  0  0  0  0  0  0  0  0
   12.4767   -4.7393   22.1790 C   0  0  0  0  0  0  0  0  0  0  0  0
    7.8593   -5.3772   15.3569 N   0  0  0  0  0  0  0  0  0  0  0  0
    7.4412   -6.9038   16.9283 C   0  0  0  0  0  0  0  0  0  0  0  0
  1 21  4  0
  1 23  4  0
  2  5  1  0
  2 13  4  0
  2 16  4  0
  3  6  4  0
  3  7  4  0
  4 13  4  0
  4 19  4  0
  4 24  4  0
  6 23  4  0
  7 16  1  0
  7 21  4  0
  8 18  1  0
  9 20  4  0
  9 22  4  0
 10 17  1  0
 10 25  1  0
 11 16  4  0
 11 19  4  0
 12 15  4  0
 12 22  4  0
 14 24  4  0
 14 25  4  0
 15 17  4  0
 17 20  4  0
 18 23  1  0
 19 25  4  0
M  END
$$$$

 Created by Python create_sdf_string function

 25 28  0  0  0  0  0  0  0  0999 V2000
   13.1533   -5.2399   21.0682 C   0  0  0  0  0  0  0  0  0  0  0  0
   10.4729   -4.0295   17.6135 C   0  0  0  0  0  0  0  0  0  0  0  0
   10.4789   -4.3641   20.9564 C   0  0  0  0  0  0  0  0  0  0  0  0
    8.7421   -5.1412   16.3650 C   0  0  0  0  0  0  0  0  0  0  0  0
   11.4353   -2.9204   17.8044 C   0  0  0  0  0  0  0  0  0  0  0  0
   11.1529   -4.3028   22.1277 C   0  0  0  0  0  0  0  0  0  0  0  0
   11.1290   -4.8502   19.8052 C   0  0  0  0  0  0  0  0  0  0  0  0
   12.4329   -4.2159   24.4224 C   0  0  0  0  0  0  0  0  0  0  0  0
    3.4740   -9.0387   16.5022 C   0  0  0  0  0  0  0  0  0  0  0  0
    6.8384   -7.9290   17.5282 N   0  0  0  0  0  0  0  0  0  0  0  0
    9.4126   -5.9853   18.4899 C   0  0  0  0  0  0  0  0  0  0  0  0
    4.2064  -10.3242   18.3302 C   0  0  0  0  0  0  0  0  0  0  0  0
    9.6599   -4.1551   16.4796 N   0  0  0  0  0  0  0  0  0  0  0  0
    7.0644   -6.4612   15.7375 N   0  0  0  0  0  0  0  0  0  0  0  0
    5.3549   -9.6322   18.3190 C   0  0  0  0  0  0  0  0  0  0  0  0
   10.3704   -4.9638   18.6510 C   0  0  0  0  0  0  0  0  0  0  0  0
    5.5935   -8.6419   17.4234 C   0  0  0  0  0  0  0  0  0  0  0  0
   13.0726   -4.6648   23.3394 O   0  0  0  0  0  0  0  0  0  0  0  0
    8.5955   -6.0705   17.3996 C   0  0  0  0  0  0  0  0  0  0  0  0
    4.6223   -8.3832   16.5030 C   0  0  0  0  0  0  0  0  0  0  0  0
   12.4690   -5.2624   19.9024 C   0  0  0  0  0  0  0  0  0  0  0  0
    3.2548   -9.9919   17.4189 C   0  0  0  0  0  0  0  0  0  0  0  0
   12.4767   -4.7393   22.1790 C   0  0  0  0  0  0  0  0  0  0  0  0
    7.8593   -5.3772   15.3569 N   0  0  0  0  0  0  0  0  0  0  0  0
    7.4412   -6.9038   16.9283 C   0  0  0  0  0  0  0  0  0  0  0  0
  1 21  4  0
  1 23  4  0
  2  5  1  0
  2 13  4  0
  2 16  4  0
  3  6  4  0
  3  7  4  0
  4 13  4  0
  4 19  4  0
  4 24  4  0
  6 23  4  0
  7 16  1  0
  7 21  4  0
  8 18  1  0
  9 20  4  0
  9 22  4  0
 10 17  1  0
 10 25  1  0
 11 16  4  0
 11 19  4  0
 12 15  4  0
 12 22  4  0
 14 24  4  0
 14 25  4  0
 15 17  4  0
 17 20  4  0
 18 23  1  0
 19 25  4  0
M  END
$$$$

 Created by Python create_sdf_string function

 25 28  0  0  0  0  0  0  0  0999 V2000
   13.1533   -5.2399   21.0682 C   0  0  0  0  0  0  0  0  0  0  0  0
   10.4729   -4.0295   17.6135 C   0  0  0  0  0  0  0  0  0  0  0  0
   10.4789   -4.3641   20.9564 C   0  0  0  0  0  0  0  0  0  0  0  0
    8.7421   -5.1412   16.3650 C   0  0  0  0  0  0  0  0  0  0  0  0
   11.4353   -2.9204   17.8044 C   0  0  0  0  0  0  0  0  0  0  0  0
   11.1529   -4.3028   22.1277 C   0  0  0  0  0  0  0  0  0  0  0  0
   11.1290   -4.8502   19.8052 C   0  0  0  0  0  0  0  0  0  0  0  0
   12.4329   -4.2159   24.4224 C   0  0  0  0  0  0  0  0  0  0  0  0
    3.4740   -9.0387   16.5022 C   0  0  0  0  0  0  0  0  0  0  0  0
    6.8384   -7.9290   17.5282 N   0  0  0  0  0  0  0  0  0  0  0  0
    9.4126   -5.9853   18.4899 C   0  0  0  0  0  0  0  0  0  0  0  0
    4.2064  -10.3242   18.3302 C   0  0  0  0  0  0  0  0  0  0  0  0
    9.6599   -4.1551   16.4796 N   0  0  0  0  0  0  0  0  0  0  0  0
    7.0644   -6.4612   15.7375 N   0  0  0  0  0  0  0  0  0  0  0  0
    5.3549   -9.6322   18.3190 C   0  0  0  0  0  0  0  0  0  0  0  0
   10.3704   -4.9638   18.6510 C   0  0  0  0  0  0  0  0  0  0  0  0
    5.5935   -8.6419   17.4234 C   0  0  0  0  0  0  0  0  0  0  0  0
   13.0726   -4.6648   23.3394 O   0  0  0  0  0  0  0  0  0  0  0  0
    8.5955   -6.0705   17.3996 C   0  0  0  0  0  0  0  0  0  0  0  0
    4.6223   -8.3832   16.5030 C   0  0  0  0  0  0  0  0  0  0  0  0
   12.4690   -5.2624   19.9024 C   0  0  0  0  0  0  0  0  0  0  0  0
    3.2548   -9.9919   17.4189 C   0  0  0  0  0  0  0  0  0  0  0  0
   12.4767   -4.7393   22.1790 C   0  0  0  0  0  0  0  0  0  0  0  0
    7.8593   -5.3772   15.3569 N   0  0  0  0  0  0  0  0  0  0  0  0
    7.4412   -6.9038   16.9283 C   0  0  0  0  0  0  0  0  0  0  0  0
  1 21  4  0
  1 23  4  0
  2  5  1  0
  2 13  4  0
  2 16  4  0
  3  6  4  0
  3  7  4  0
  4 13  4  0
  4 19  4  0
  4 24  4  0
  6 23  4  0
  7 16  1  0
  7 21  4  0
  8 18  1  0
  9 20  4  0
  9 22  4  0
 10 17  1  0
 10 25  1  0
 11 16  4  0
 11 19  4  0
 12 15  4  0
 12 22  4  0
 14 24  4  0
 14 25  4  0
 15 17  4  0
 17 20  4  0
 18 23  1  0
 19 25  4  0
M  END
$$$$

 Created by Python create_sdf_string function

 25 28  0  0  0  0  0  0  0  0999 V2000
   13.1533   -5.2399   21.0682 C   0  0  0  0  0  0  0  0  0  0  0  0
   10.4729   -4.0295   17.6135 C   0  0  0  0  0  0  0  0  0  0  0  0
   10.4789   -4.3641   20.9564 C   0  0  0  0  0  0  0  0  0  0  0  0
    8.7421   -5.1412   16.3650 C   0  0  0  0  0  0  0  0  0  0  0  0
   11.4353   -2.9204   17.8044 C   0  0  0  0  0  0  0  0  0  0  0  0
   11.1529   -4.3028   22.1277 C   0  0  0  0  0  0  0  0  0  0  0  0
   11.1290   -4.8502   19.8052 C   0  0  0  0  0  0  0  0  0  0  0  0
   12.4329   -4.2159   24.4224 C   0  0  0  0  0  0  0  0  0  0  0  0
    3.4740   -9.0387   16.5022 C   0  0  0  0  0  0  0  0  0  0  0  0
    6.8384   -7.9290   17.5282 N   0  0  0  0  0  0  0  0  0  0  0  0
    9.4126   -5.9853   18.4899 C   0  0  0  0  0  0  0  0  0  0  0  0
    4.2064  -10.3242   18.3302 C   0  0  0  0  0  0  0  0  0  0  0  0
    9.6599   -4.1551   16.4796 N   0  0  0  0  0  0  0  0  0  0  0  0
    7.0644   -6.4612   15.7375 N   0  0  0  0  0  0  0  0  0  0  0  0
    5.3549   -9.6322   18.3190 C   0  0  0  0  0  0  0  0  0  0  0  0
   10.3704   -4.9638   18.6510 C   0  0  0  0  0  0  0  0  0  0  0  0
    5.5935   -8.6419   17.4234 C   0  0  0  0  0  0  0  0  0  0  0  0
   13.0726   -4.6648   23.3394 O   0  0  0  0  0  0  0  0  0  0  0  0
    8.5955   -6.0705   17.3996 C   0  0  0  0  0  0  0  0  0  0  0  0
    4.6223   -8.3832   16.5030 C   0  0  0  0  0  0  0  0  0  0  0  0
   12.4690   -5.2624   19.9024 C   0  0  0  0  0  0  0  0  0  0  0  0
    3.2548   -9.9919   17.4189 C   0  0  0  0  0  0  0  0  0  0  0  0
   12.4767   -4.7393   22.1790 C   0  0  0  0  0  0  0  0  0  0  0  0
    7.8593   -5.3772   15.3569 N   0  0  0  0  0  0  0  0  0  0  0  0
    7.4412   -6.9038   16.9283 C   0  0  0  0  0  0  0  0  0  0  0  0
  1 21  4  0
  1 23  4  0
  2  5  1  0
  2 13  4  0
  2 16  4  0
  3  6  4  0
  3  7  4  0
  4 13  4  0
  4 19  4  0
  4 24  4  0
  6 23  4  0
  7 16  1  0
  7 21  4  0
  8 18  1  0
  9 20  4  0
  9 22  4  0
 10 17  1  0
 10 25  1  0
 11 16  4  0
 11 19  4  0
 12 15  4  0
 12 22  4  0
 14 24  4  0
 14 25  4  0
 15 17  4  0
 17 20  4  0
 18 23  1  0
 19 25  4  0
M  END
$$$$

 Created by Python create_sdf_string function

 25 28  0  0  0  0  0  0  0  0999 V2000
   13.1533   -5.2399   21.0682 C   0  0  0  0  0  0  0  0  0  0  0  0
   10.4729   -4.0295   17.6135 C   0  0  0  0  0  0  0  0  0  0  0  0
   10.4789   -4.3641   20.9564 C   0  0  0  0  0  0  0  0  0  0  0  0
    8.7421   -5.1412   16.3650 C   0  0  0  0  0  0  0  0  0  0  0  0
   11.4353   -2.9204   17.8044 C   0  0  0  0  0  0  0  0  0  0  0  0
   11.1529   -4.3028   22.1277 C   0  0  0  0  0  0  0  0  0  0  0  0
   11.1290   -4.8502   19.8052 C   0  0  0  0  0  0  0  0  0  0  0  0
   12.4329   -4.2159   24.4224 C   0  0  0  0  0  0  0  0  0  0  0  0
    3.4740   -9.0387   16.5022 C   0  0  0  0  0  0  0  0  0  0  0  0
    6.8384   -7.9290   17.5282 N   0  0  0  0  0  0  0  0  0  0  0  0
    9.4126   -5.9853   18.4899 C   0  0  0  0  0  0  0  0  0  0  0  0
    4.2064  -10.3242   18.3302 C   0  0  0  0  0  0  0  0  0  0  0  0
    9.6599   -4.1551   16.4796 N   0  0  0  0  0  0  0  0  0  0  0  0
    7.0644   -6.4612   15.7375 N   0  0  0  0  0  0  0  0  0  0  0  0
    5.3549   -9.6322   18.3190 C   0  0  0  0  0  0  0  0  0  0  0  0
   10.3704   -4.9638   18.6510 C   0  0  0  0  0  0  0  0  0  0  0  0
    5.5935   -8.6419   17.4234 C   0  0  0  0  0  0  0  0  0  0  0  0
   13.0726   -4.6648   23.3394 O   0  0  0  0  0  0  0  0  0  0  0  0
    8.5955   -6.0705   17.3996 C   0  0  0  0  0  0  0  0  0  0  0  0
    4.6223   -8.3832   16.5030 C   0  0  0  0  0  0  0  0  0  0  0  0
   12.4690   -5.2624   19.9024 C   0  0  0  0  0  0  0  0  0  0  0  0
    3.2548   -9.9919   17.4189 C   0  0  0  0  0  0  0  0  0  0  0  0
   12.4767   -4.7393   22.1790 C   0  0  0  0  0  0  0  0  0  0  0  0
    7.8593   -5.3772   15.3569 N   0  0  0  0  0  0  0  0  0  0  0  0
    7.4412   -6.9038   16.9283 C   0  0  0  0  0  0  0  0  0  0  0  0
  1 21  4  0
  1 23  4  0
  2  5  1  0
  2 13  4  0
  2 16  4  0
  3  6  4  0
  3  7  4  0
  4 13  4  0
  4 19  4  0
  4 24  4  0
  6 23  4  0
  7 16  1  0
  7 21  4  0
  8 18  1  0
  9 20  4  0
  9 22  4  0
 10 17  1  0
 10 25  1  0
 11 16  4  0
 11 19  4  0
 12 15  4  0
 12 22  4  0
 14 24  4  0
 14 25  4  0
 15 17  4  0
 17 20  4  0
 18 23  1  0
 19 25  4  0
M  END
$$$$

 Created by Python create_sdf_string function

 25 28  0  0  0  0  0  0  0  0999 V2000
   13.1533   -5.2399   21.0682 C   0  0  0  0  0  0  0  0  0  0  0  0
   10.4729   -4.0295   17.6135 C   0  0  0  0  0  0  0  0  0  0  0  0
   10.4789   -4.3641   20.9564 C   0  0  0  0  0  0  0  0  0  0  0  0
    8.7421   -5.1412   16.3650 C   0  0  0  0  0  0  0  0  0  0  0  0
   11.4353   -2.9204   17.8044 C   0  0  0  0  0  0  0  0  0  0  0  0
   11.1529   -4.3028   22.1277 C   0  0  0  0  0  0  0  0  0  0  0  0
   11.1290   -4.8502   19.8052 C   0  0  0  0  0  0  0  0  0  0  0  0
   12.4329   -4.2159   24.4224 C   0  0  0  0  0  0  0  0  0  0  0  0
    3.4740   -9.0387   16.5022 C   0  0  0  0  0  0  0  0  0  0  0  0
    6.8384   -7.9290   17.5282 N   0  0  0  0  0  0  0  0  0  0  0  0
    9.4126   -5.9853   18.4899 C   0  0  0  0  0  0  0  0  0  0  0  0
    4.2064  -10.3242   18.3302 C   0  0  0  0  0  0  0  0  0  0  0  0
    9.6599   -4.1551   16.4796 N   0  0  0  0  0  0  0  0  0  0  0  0
    7.0644   -6.4612   15.7375 N   0  0  0  0  0  0  0  0  0  0  0  0
    5.3549   -9.6322   18.3190 C   0  0  0  0  0  0  0  0  0  0  0  0
   10.3704   -4.9638   18.6510 C   0  0  0  0  0  0  0  0  0  0  0  0
    5.5935   -8.6419   17.4234 C   0  0  0  0  0  0  0  0  0  0  0  0
   13.0726   -4.6648   23.3394 O   0  0  0  0  0  0  0  0  0  0  0  0
    8.5955   -6.0705   17.3996 C   0  0  0  0  0  0  0  0  0  0  0  0
    4.6223   -8.3832   16.5030 C   0  0  0  0  0  0  0  0  0  0  0  0
   12.4690   -5.2624   19.9024 C   0  0  0  0  0  0  0  0  0  0  0  0
    3.2548   -9.9919   17.4189 C   0  0  0  0  0  0  0  0  0  0  0  0
   12.4767   -4.7393   22.1790 C   0  0  0  0  0  0  0  0  0  0  0  0
    7.8593   -5.3772   15.3569 N   0  0  0  0  0  0  0  0  0  0  0  0
    7.4412   -6.9038   16.9283 C   0  0  0  0  0  0  0  0  0  0  0  0
  1 21  4  0
  1 23  4  0
  2  5  1  0
  2 13  4  0
  2 16  4  0
  3  6  4  0
  3  7  4  0
  4 13  4  0
  4 19  4  0
  4 24  4  0
  6 23  4  0
  7 16  1  0
  7 21  4  0
  8 18  1  0
  9 20  4  0
  9 22  4  0
 10 17  1  0
 10 25  1  0
 11 16  4  0
 11 19  4  0
 12 15  4  0
 12 22  4  0
 14 24  4  0
 14 25  4  0
 15 17  4  0
 17 20  4  0
 18 23  1  0
 19 25  4  0
M  END
$$$$

 Created by Python create_sdf_string function

 25 28  0  0  0  0  0  0  0  0999 V2000
   13.1533   -5.2399   21.0682 C   0  0  0  0  0  0  0  0  0  0  0  0
   10.4729   -4.0295   17.6135 C   0  0  0  0  0  0  0  0  0  0  0  0
   10.4789   -4.3641   20.9564 C   0  0  0  0  0  0  0  0  0  0  0  0
    8.7421   -5.1412   16.3650 C   0  0  0  0  0  0  0  0  0  0  0  0
   11.4353   -2.9204   17.8044 C   0  0  0  0  0  0  0  0  0  0  0  0
   11.1529   -4.3028   22.1277 C   0  0  0  0  0  0  0  0  0  0  0  0
   11.1290   -4.8502   19.8052 C   0  0  0  0  0  0  0  0  0  0  0  0
   12.4329   -4.2159   24.4224 C   0  0  0  0  0  0  0  0  0  0  0  0
    3.4740   -9.0387   16.5022 C   0  0  0  0  0  0  0  0  0  0  0  0
    6.8384   -7.9290   17.5282 N   0  0  0  0  0  0  0  0  0  0  0  0
    9.4126   -5.9853   18.4899 C   0  0  0  0  0  0  0  0  0  0  0  0
    4.2064  -10.3242   18.3302 C   0  0  0  0  0  0  0  0  0  0  0  0
    9.6599   -4.1551   16.4796 N   0  0  0  0  0  0  0  0  0  0  0  0
    7.0644   -6.4612   15.7375 N   0  0  0  0  0  0  0  0  0  0  0  0
    5.3549   -9.6322   18.3190 C   0  0  0  0  0  0  0  0  0  0  0  0
   10.3704   -4.9638   18.6510 C   0  0  0  0  0  0  0  0  0  0  0  0
    5.5935   -8.6419   17.4234 C   0  0  0  0  0  0  0  0  0  0  0  0
   13.0726   -4.6648   23.3394 O   0  0  0  0  0  0  0  0  0  0  0  0
    8.5955   -6.0705   17.3996 C   0  0  0  0  0  0  0  0  0  0  0  0
    4.6223   -8.3832   16.5030 C   0  0  0  0  0  0  0  0  0  0  0  0
   12.4690   -5.2624   19.9024 C   0  0  0  0  0  0  0  0  0  0  0  0
    3.2548   -9.9919   17.4189 C   0  0  0  0  0  0  0  0  0  0  0  0
   12.4767   -4.7393   22.1790 C   0  0  0  0  0  0  0  0  0  0  0  0
    7.8593   -5.3772   15.3569 N   0  0  0  0  0  0  0  0  0  0  0  0
    7.4412   -6.9038   16.9283 C   0  0  0  0  0  0  0  0  0  0  0  0
  1 21  4  0
  1 23  4  0
  2  5  1  0
  2 13  4  0
  2 16  4  0
  3  6  4  0
  3  7  4  0
  4 13  4  0
  4 19  4  0
  4 24  4  0
  6 23  4  0
  7 16  1  0
  7 21  4  0
  8 18  1  0
  9 20  4  0
  9 22  4  0
 10 17  1  0
 10 25  1  0
 11 16  4  0
 11 19  4  0
 12 15  4  0
 12 22  4  0
 14 24  4  0
 14 25  4  0
 15 17  4  0
 17 20  4  0
 18 23  1  0
 19 25  4  0
M  END
$$$$

 Created by Python create_sdf_string function

 25 28  0  0  0  0  0  0  0  0999 V2000
   13.1533   -5.2399   21.0682 C   0  0  0  0  0  0  0  0  0  0  0  0
   10.4729   -4.0295   17.6135 C   0  0  0  0  0  0  0  0  0  0  0  0
   10.4789   -4.3641   20.9564 C   0  0  0  0  0  0  0  0  0  0  0  0
    8.7421   -5.1412   16.3650 C   0  0  0  0  0  0  0  0  0  0  0  0
   11.4353   -2.9204   17.8044 C   0  0  0  0  0  0  0  0  0  0  0  0
   11.1529   -4.3028   22.1277 C   0  0  0  0  0  0  0  0  0  0  0  0
   11.1290   -4.8502   19.8052 C   0  0  0  0  0  0  0  0  0  0  0  0
   12.4329   -4.2159   24.4224 C   0  0  0  0  0  0  0  0  0  0  0  0
    3.4740   -9.0387   16.5022 C   0  0  0  0  0  0  0  0  0  0  0  0
    6.8384   -7.9290   17.5282 N   0  0  0  0  0  0  0  0  0  0  0  0
    9.4126   -5.9853   18.4899 C   0  0  0  0  0  0  0  0  0  0  0  0
    4.2064  -10.3242   18.3302 C   0  0  0  0  0  0  0  0  0  0  0  0
    9.6599   -4.1551   16.4796 N   0  0  0  0  0  0  0  0  0  0  0  0
    7.0644   -6.4612   15.7375 N   0  0  0  0  0  0  0  0  0  0  0  0
    5.3549   -9.6322   18.3190 C   0  0  0  0  0  0  0  0  0  0  0  0
   10.3704   -4.9638   18.6510 C   0  0  0  0  0  0  0  0  0  0  0  0
    5.5935   -8.6419   17.4234 C   0  0  0  0  0  0  0  0  0  0  0  0
   13.0726   -4.6648   23.3394 O   0  0  0  0  0  0  0  0  0  0  0  0
    8.5955   -6.0705   17.3996 C   0  0  0  0  0  0  0  0  0  0  0  0
    4.6223   -8.3832   16.5030 C   0  0  0  0  0  0  0  0  0  0  0  0
   12.4690   -5.2624   19.9024 C   0  0  0  0  0  0  0  0  0  0  0  0
    3.2548   -9.9919   17.4189 C   0  0  0  0  0  0  0  0  0  0  0  0
   12.4767   -4.7393   22.1790 C   0  0  0  0  0  0  0  0  0  0  0  0
    7.8593   -5.3772   15.3569 N   0  0  0  0  0  0  0  0  0  0  0  0
    7.4412   -6.9038   16.9283 C   0  0  0  0  0  0  0  0  0  0  0  0
  1 21  4  0
  1 23  4  0
  2  5  1  0
  2 13  4  0
  2 16  4  0
  3  6  4  0
  3  7  4  0
  4 13  4  0
  4 19  4  0
  4 24  4  0
  6 23  4  0
  7 16  1  0
  7 21  4  0
  8 18  1  0
  9 20  4  0
  9 22  4  0
 10 17  1  0
 10 25  1  0
 11 16  4  0
 11 19  4  0
 12 15  4  0
 12 22  4  0
 14 24  4  0
 14 25  4  0
 15 17  4  0
 17 20  4  0
 18 23  1  0
 19 25  4  0
M  END
$$$$

 Created by Python create_sdf_string function

 25 28  0  0  0  0  0  0  0  0999 V2000
   13.1533   -5.2399   21.0682 C   0  0  0  0  0  0  0  0  0  0  0  0
   10.4729   -4.0295   17.6135 C   0  0  0  0  0  0  0  0  0  0  0  0
   10.4789   -4.3641   20.9564 C   0  0  0  0  0  0  0  0  0  0  0  0
    8.7421   -5.1412   16.3650 C   0  0  0  0  0  0  0  0  0  0  0  0
   11.4353   -2.9204   17.8044 C   0  0  0  0  0  0  0  0  0  0  0  0
   11.1529   -4.3028   22.1277 C   0  0  0  0  0  0  0  0  0  0  0  0
   11.1290   -4.8502   19.8052 C   0  0  0  0  0  0  0  0  0  0  0  0
   12.4329   -4.2159   24.4224 C   0  0  0  0  0  0  0  0  0  0  0  0
    3.4740   -9.0387   16.5022 C   0  0  0  0  0  0  0  0  0  0  0  0
    6.8384   -7.9290   17.5282 N   0  0  0  0  0  0  0  0  0  0  0  0
    9.4126   -5.9853   18.4899 C   0  0  0  0  0  0  0  0  0  0  0  0
    4.2064  -10.3242   18.3302 C   0  0  0  0  0  0  0  0  0  0  0  0
    9.6599   -4.1551   16.4796 N   0  0  0  0  0  0  0  0  0  0  0  0
    7.0644   -6.4612   15.7375 N   0  0  0  0  0  0  0  0  0  0  0  0
    5.3549   -9.6322   18.3190 C   0  0  0  0  0  0  0  0  0  0  0  0
   10.3704   -4.9638   18.6510 C   0  0  0  0  0  0  0  0  0  0  0  0
    5.5935   -8.6419   17.4234 C   0  0  0  0  0  0  0  0  0  0  0  0
   13.0726   -4.6648   23.3394 O   0  0  0  0  0  0  0  0  0  0  0  0
    8.5955   -6.0705   17.3996 C   0  0  0  0  0  0  0  0  0  0  0  0
    4.6223   -8.3832   16.5030 C   0  0  0  0  0  0  0  0  0  0  0  0
   12.4690   -5.2624   19.9024 C   0  0  0  0  0  0  0  0  0  0  0  0
    3.2548   -9.9919   17.4189 C   0  0  0  0  0  0  0  0  0  0  0  0
   12.4767   -4.7393   22.1790 C   0  0  0  0  0  0  0  0  0  0  0  0
    7.8593   -5.3772   15.3569 N   0  0  0  0  0  0  0  0  0  0  0  0
    7.4412   -6.9038   16.9283 C   0  0  0  0  0  0  0  0  0  0  0  0
  1 21  4  0
  1 23  4  0
  2  5  1  0
  2 13  4  0
  2 16  4  0
  3  6  4  0
  3  7  4  0
  4 13  4  0
  4 19  4  0
  4 24  4  0
  6 23  4  0
  7 16  1  0
  7 21  4  0
  8 18  1  0
  9 20  4  0
  9 22  4  0
 10 17  1  0
 10 25  1  0
 11 16  4  0
 11 19  4  0
 12 15  4  0
 12 22  4  0
 14 24  4  0
 14 25  4  0
 15 17  4  0
 17 20  4  0
 18 23  1  0
 19 25  4  0
M  END
$$$$

 Created by Python create_sdf_string function

 25 28  0  0  0  0  0  0  0  0999 V2000
   13.1533   -5.2399   21.0682 C   0  0  0  0  0  0  0  0  0  0  0  0
   10.4729   -4.0295   17.6135 C   0  0  0  0  0  0  0  0  0  0  0  0
   10.4789   -4.3641   20.9564 C   0  0  0  0  0  0  0  0  0  0  0  0
    8.7421   -5.1412   16.3650 C   0  0  0  0  0  0  0  0  0  0  0  0
   11.4353   -2.9204   17.8044 C   0  0  0  0  0  0  0  0  0  0  0  0
   11.1529   -4.3028   22.1277 C   0  0  0  0  0  0  0  0  0  0  0  0
   11.1290   -4.8502   19.8052 C   0  0  0  0  0  0  0  0  0  0  0  0
   12.4329   -4.2159   24.4224 C   0  0  0  0  0  0  0  0  0  0  0  0
    3.4740   -9.0387   16.5022 C   0  0  0  0  0  0  0  0  0  0  0  0
    6.8384   -7.9290   17.5282 N   0  0  0  0  0  0  0  0  0  0  0  0
    9.4126   -5.9853   18.4899 C   0  0  0  0  0  0  0  0  0  0  0  0
    4.2064  -10.3242   18.3302 C   0  0  0  0  0  0  0  0  0  0  0  0
    9.6599   -4.1551   16.4796 N   0  0  0  0  0  0  0  0  0  0  0  0
    7.0644   -6.4612   15.7375 N   0  0  0  0  0  0  0  0  0  0  0  0
    5.3549   -9.6322   18.3190 C   0  0  0  0  0  0  0  0  0  0  0  0
   10.3704   -4.9638   18.6510 C   0  0  0  0  0  0  0  0  0  0  0  0
    5.5935   -8.6419   17.4234 C   0  0  0  0  0  0  0  0  0  0  0  0
   13.0726   -4.6648   23.3394 O   0  0  0  0  0  0  0  0  0  0  0  0
    8.5955   -6.0705   17.3996 C   0  0  0  0  0  0  0  0  0  0  0  0
    4.6223   -8.3832   16.5030 C   0  0  0  0  0  0  0  0  0  0  0  0
   12.4690   -5.2624   19.9024 C   0  0  0  0  0  0  0  0  0  0  0  0
    3.2548   -9.9919   17.4189 C   0  0  0  0  0  0  0  0  0  0  0  0
   12.4767   -4.7393   22.1790 C   0  0  0  0  0  0  0  0  0  0  0  0
    7.8593   -5.3772   15.3569 N   0  0  0  0  0  0  0  0  0  0  0  0
    7.4412   -6.9038   16.9283 C   0  0  0  0  0  0  0  0  0  0  0  0
  1 21  4  0
  1 23  4  0
  2  5  1  0
  2 13  4  0
  2 16  4  0
  3  6  4  0
  3  7  4  0
  4 13  4  0
  4 19  4  0
  4 24  4  0
  6 23  4  0
  7 16  1  0
  7 21  4  0
  8 18  1  0
  9 20  4  0
  9 22  4  0
 10 17  1  0
 10 25  1  0
 11 16  4  0
 11 19  4  0
 12 15  4  0
 12 22  4  0
 14 24  4  0
 14 25  4  0
 15 17  4  0
 17 20  4  0
 18 23  1  0
 19 25  4  0
M  END
$$$$

 Created by Python create_sdf_string function

 25 28  0  0  0  0  0  0  0  0999 V2000
   13.1533   -5.2399   21.0682 C   0  0  0  0  0  0  0  0  0  0  0  0
   10.4729   -4.0295   17.6135 C   0  0  0  0  0  0  0  0  0  0  0  0
   10.4789   -4.3641   20.9564 C   0  0  0  0  0  0  0  0  0  0  0  0
    8.7421   -5.1412   16.3650 C   0  0  0  0  0  0  0  0  0  0  0  0
   11.4353   -2.9204   17.8044 C   0  0  0  0  0  0  0  0  0  0  0  0
   11.1529   -4.3028   22.1277 C   0  0  0  0  0  0  0  0  0  0  0  0
   11.1290   -4.8502   19.8052 C   0  0  0  0  0  0  0  0  0  0  0  0
   12.4329   -4.2159   24.4224 C   0  0  0  0  0  0  0  0  0  0  0  0
    3.4740   -9.0387   16.5022 C   0  0  0  0  0  0  0  0  0  0  0  0
    6.8384   -7.9290   17.5282 N   0  0  0  0  0  0  0  0  0  0  0  0
    9.4126   -5.9853   18.4899 C   0  0  0  0  0  0  0  0  0  0  0  0
    4.2064  -10.3242   18.3302 C   0  0  0  0  0  0  0  0  0  0  0  0
    9.6599   -4.1551   16.4796 N   0  0  0  0  0  0  0  0  0  0  0  0
    7.0644   -6.4612   15.7375 N   0  0  0  0  0  0  0  0  0  0  0  0
    5.3549   -9.6322   18.3190 C   0  0  0  0  0  0  0  0  0  0  0  0
   10.3704   -4.9638   18.6510 C   0  0  0  0  0  0  0  0  0  0  0  0
    5.5935   -8.6419   17.4234 C   0  0  0  0  0  0  0  0  0  0  0  0
   13.0726   -4.6648   23.3394 O   0  0  0  0  0  0  0  0  0  0  0  0
    8.5955   -6.0705   17.3996 C   0  0  0  0  0  0  0  0  0  0  0  0
    4.6223   -8.3832   16.5030 C   0  0  0  0  0  0  0  0  0  0  0  0
   12.4690   -5.2624   19.9024 C   0  0  0  0  0  0  0  0  0  0  0  0
    3.2548   -9.9919   17.4189 C   0  0  0  0  0  0  0  0  0  0  0  0
   12.4767   -4.7393   22.1790 C   0  0  0  0  0  0  0  0  0  0  0  0
    7.8593   -5.3772   15.3569 N   0  0  0  0  0  0  0  0  0  0  0  0
    7.4412   -6.9038   16.9283 C   0  0  0  0  0  0  0  0  0  0  0  0
  1 21  4  0
  1 23  4  0
  2  5  1  0
  2 13  4  0
  2 16  4  0
  3  6  4  0
  3  7  4  0
  4 13  4  0
  4 19  4  0
  4 24  4  0
  6 23  4  0
  7 16  1  0
  7 21  4  0
  8 18  1  0
  9 20  4  0
  9 22  4  0
 10 17  1  0
 10 25  1  0
 11 16  4  0
 11 19  4  0
 12 15  4  0
 12 22  4  0
 14 24  4  0
 14 25  4  0
 15 17  4  0
 17 20  4  0
 18 23  1  0
 19 25  4  0
M  END
$$$$

 Created by Python create_sdf_string function

 25 28  0  0  0  0  0  0  0  0999 V2000
   13.1533   -5.2399   21.0682 C   0  0  0  0  0  0  0  0  0  0  0  0
   10.4729   -4.0295   17.6135 C   0  0  0  0  0  0  0  0  0  0  0  0
   10.4789   -4.3641   20.9564 C   0  0  0  0  0  0  0  0  0  0  0  0
    8.7421   -5.1412   16.3650 C   0  0  0  0  0  0  0  0  0  0  0  0
   11.4353   -2.9204   17.8044 C   0  0  0  0  0  0  0  0  0  0  0  0
   11.1529   -4.3028   22.1277 C   0  0  0  0  0  0  0  0  0  0  0  0
   11.1290   -4.8502   19.8052 C   0  0  0  0  0  0  0  0  0  0  0  0
   12.4329   -4.2159   24.4224 C   0  0  0  0  0  0  0  0  0  0  0  0
    3.4740   -9.0387   16.5022 C   0  0  0  0  0  0  0  0  0  0  0  0
    6.8384   -7.9290   17.5282 N   0  0  0  0  0  0  0  0  0  0  0  0
    9.4126   -5.9853   18.4899 C   0  0  0  0  0  0  0  0  0  0  0  0
    4.2064  -10.3242   18.3302 C   0  0  0  0  0  0  0  0  0  0  0  0
    9.6599   -4.1551   16.4796 N   0  0  0  0  0  0  0  0  0  0  0  0
    7.0644   -6.4612   15.7375 N   0  0  0  0  0  0  0  0  0  0  0  0
    5.3549   -9.6322   18.3190 C   0  0  0  0  0  0  0  0  0  0  0  0
   10.3704   -4.9638   18.6510 C   0  0  0  0  0  0  0  0  0  0  0  0
    5.5935   -8.6419   17.4234 C   0  0  0  0  0  0  0  0  0  0  0  0
   13.0726   -4.6648   23.3394 O   0  0  0  0  0  0  0  0  0  0  0  0
    8.5955   -6.0705   17.3996 C   0  0  0  0  0  0  0  0  0  0  0  0
    4.6223   -8.3832   16.5030 C   0  0  0  0  0  0  0  0  0  0  0  0
   12.4690   -5.2624   19.9024 C   0  0  0  0  0  0  0  0  0  0  0  0
    3.2548   -9.9919   17.4189 C   0  0  0  0  0  0  0  0  0  0  0  0
   12.4767   -4.7393   22.1790 C   0  0  0  0  0  0  0  0  0  0  0  0
    7.8593   -5.3772   15.3569 N   0  0  0  0  0  0  0  0  0  0  0  0
    7.4412   -6.9038   16.9283 C   0  0  0  0  0  0  0  0  0  0  0  0
  1 21  4  0
  1 23  4  0
  2  5  1  0
  2 13  4  0
  2 16  4  0
  3  6  4  0
  3  7  4  0
  4 13  4  0
  4 19  4  0
  4 24  4  0
  6 23  4  0
  7 16  1  0
  7 21  4  0
  8 18  1  0
  9 20  4  0
  9 22  4  0
 10 17  1  0
 10 25  1  0
 11 16  4  0
 11 19  4  0
 12 15  4  0
 12 22  4  0
 14 24  4  0
 14 25  4  0
 15 17  4  0
 17 20  4  0
 18 23  1  0
 19 25  4  0
M  END
$$$$

 Created by Python create_sdf_string function

 25 28  0  0  0  0  0  0  0  0999 V2000
   13.1533   -5.2399   21.0682 C   0  0  0  0  0  0  0  0  0  0  0  0
   10.4729   -4.0295   17.6135 C   0  0  0  0  0  0  0  0  0  0  0  0
   10.4789   -4.3641   20.9564 C   0  0  0  0  0  0  0  0  0  0  0  0
    8.7421   -5.1412   16.3650 C   0  0  0  0  0  0  0  0  0  0  0  0
   11.4353   -2.9204   17.8044 C   0  0  0  0  0  0  0  0  0  0  0  0
   11.1529   -4.3028   22.1277 C   0  0  0  0  0  0  0  0  0  0  0  0
   11.1290   -4.8502   19.8052 C   0  0  0  0  0  0  0  0  0  0  0  0
   12.4329   -4.2159   24.4224 C   0  0  0  0  0  0  0  0  0  0  0  0
    3.4740   -9.0387   16.5022 C   0  0  0  0  0  0  0  0  0  0  0  0
    6.8384   -7.9290   17.5282 N   0  0  0  0  0  0  0  0  0  0  0  0
    9.4126   -5.9853   18.4899 C   0  0  0  0  0  0  0  0  0  0  0  0
    4.2064  -10.3242   18.3302 C   0  0  0  0  0  0  0  0  0  0  0  0
    9.6599   -4.1551   16.4796 N   0  0  0  0  0  0  0  0  0  0  0  0
    7.0644   -6.4612   15.7375 N   0  0  0  0  0  0  0  0  0  0  0  0
    5.3549   -9.6322   18.3190 C   0  0  0  0  0  0  0  0  0  0  0  0
   10.3704   -4.9638   18.6510 C   0  0  0  0  0  0  0  0  0  0  0  0
    5.5935   -8.6419   17.4234 C   0  0  0  0  0  0  0  0  0  0  0  0
   13.0726   -4.6648   23.3394 O   0  0  0  0  0  0  0  0  0  0  0  0
    8.5955   -6.0705   17.3996 C   0  0  0  0  0  0  0  0  0  0  0  0
    4.6223   -8.3832   16.5030 C   0  0  0  0  0  0  0  0  0  0  0  0
   12.4690   -5.2624   19.9024 C   0  0  0  0  0  0  0  0  0  0  0  0
    3.2548   -9.9919   17.4189 C   0  0  0  0  0  0  0  0  0  0  0  0
   12.4767   -4.7393   22.1790 C   0  0  0  0  0  0  0  0  0  0  0  0
    7.8593   -5.3772   15.3569 N   0  0  0  0  0  0  0  0  0  0  0  0
    7.4412   -6.9038   16.9283 C   0  0  0  0  0  0  0  0  0  0  0  0
  1 21  4  0
  1 23  4  0
  2  5  1  0
  2 13  4  0
  2 16  4  0
  3  6  4  0
  3  7  4  0
  4 13  4  0
  4 19  4  0
  4 24  4  0
  6 23  4  0
  7 16  1  0
  7 21  4  0
  8 18  1  0
  9 20  4  0
  9 22  4  0
 10 17  1  0
 10 25  1  0
 11 16  4  0
 11 19  4  0
 12 15  4  0
 12 22  4  0
 14 24  4  0
 14 25  4  0
 15 17  4  0
 17 20  4  0
 18 23  1  0
 19 25  4  0
M  END
$$$$

 Created by Python create_sdf_string function

 25 28  0  0  0  0  0  0  0  0999 V2000
   13.1533   -5.2399   21.0682 C   0  0  0  0  0  0  0  0  0  0  0  0
   10.4729   -4.0295   17.6135 C   0  0  0  0  0  0  0  0  0  0  0  0
   10.4789   -4.3641   20.9564 C   0  0  0  0  0  0  0  0  0  0  0  0
    8.7421   -5.1412   16.3650 C   0  0  0  0  0  0  0  0  0  0  0  0
   11.4353   -2.9204   17.8044 C   0  0  0  0  0  0  0  0  0  0  0  0
   11.1529   -4.3028   22.1277 C   0  0  0  0  0  0  0  0  0  0  0  0
   11.1290   -4.8502   19.8052 C   0  0  0  0  0  0  0  0  0  0  0  0
   12.4329   -4.2159   24.4224 C   0  0  0  0  0  0  0  0  0  0  0  0
    3.4740   -9.0387   16.5022 C   0  0  0  0  0  0  0  0  0  0  0  0
    6.8384   -7.9290   17.5282 N   0  0  0  0  0  0  0  0  0  0  0  0
    9.4126   -5.9853   18.4899 C   0  0  0  0  0  0  0  0  0  0  0  0
    4.2064  -10.3242   18.3302 C   0  0  0  0  0  0  0  0  0  0  0  0
    9.6599   -4.1551   16.4796 N   0  0  0  0  0  0  0  0  0  0  0  0
    7.0644   -6.4612   15.7375 N   0  0  0  0  0  0  0  0  0  0  0  0
    5.3549   -9.6322   18.3190 C   0  0  0  0  0  0  0  0  0  0  0  0
   10.3704   -4.9638   18.6510 C   0  0  0  0  0  0  0  0  0  0  0  0
    5.5935   -8.6419   17.4234 C   0  0  0  0  0  0  0  0  0  0  0  0
   13.0726   -4.6648   23.3394 O   0  0  0  0  0  0  0  0  0  0  0  0
    8.5955   -6.0705   17.3996 C   0  0  0  0  0  0  0  0  0  0  0  0
    4.6223   -8.3832   16.5030 C   0  0  0  0  0  0  0  0  0  0  0  0
   12.4690   -5.2624   19.9024 C   0  0  0  0  0  0  0  0  0  0  0  0
    3.2548   -9.9919   17.4189 C   0  0  0  0  0  0  0  0  0  0  0  0
   12.4767   -4.7393   22.1790 C   0  0  0  0  0  0  0  0  0  0  0  0
    7.8593   -5.3772   15.3569 N   0  0  0  0  0  0  0  0  0  0  0  0
    7.4412   -6.9038   16.9283 C   0  0  0  0  0  0  0  0  0  0  0  0
  1 21  4  0
  1 23  4  0
  2  5  1  0
  2 13  4  0
  2 16  4  0
  3  6  4  0
  3  7  4  0
  4 13  4  0
  4 19  4  0
  4 24  4  0
  6 23  4  0
  7 16  1  0
  7 21  4  0
  8 18  1  0
  9 20  4  0
  9 22  4  0
 10 17  1  0
 10 25  1  0
 11 16  4  0
 11 19  4  0
 12 15  4  0
 12 22  4  0
 14 24  4  0
 14 25  4  0
 15 17  4  0
 17 20  4  0
 18 23  1  0
 19 25  4  0
M  END
$$$$

 Created by Python create_sdf_string function

 25 28  0  0  0  0  0  0  0  0999 V2000
   13.1533   -5.2399   21.0682 C   0  0  0  0  0  0  0  0  0  0  0  0
   10.4729   -4.0295   17.6135 C   0  0  0  0  0  0  0  0  0  0  0  0
   10.4789   -4.3641   20.9564 C   0  0  0  0  0  0  0  0  0  0  0  0
    8.7421   -5.1412   16.3650 C   0  0  0  0  0  0  0  0  0  0  0  0
   11.4353   -2.9204   17.8044 C   0  0  0  0  0  0  0  0  0  0  0  0
   11.1529   -4.3028   22.1277 C   0  0  0  0  0  0  0  0  0  0  0  0
   11.1290   -4.8502   19.8052 C   0  0  0  0  0  0  0  0  0  0  0  0
   12.4329   -4.2159   24.4224 C   0  0  0  0  0  0  0  0  0  0  0  0
    3.4740   -9.0387   16.5022 C   0  0  0  0  0  0  0  0  0  0  0  0
    6.8384   -7.9290   17.5282 N   0  0  0  0  0  0  0  0  0  0  0  0
    9.4126   -5.9853   18.4899 C   0  0  0  0  0  0  0  0  0  0  0  0
    4.2064  -10.3242   18.3302 C   0  0  0  0  0  0  0  0  0  0  0  0
    9.6599   -4.1551   16.4796 N   0  0  0  0  0  0  0  0  0  0  0  0
    7.0644   -6.4612   15.7375 N   0  0  0  0  0  0  0  0  0  0  0  0
    5.3549   -9.6322   18.3190 C   0  0  0  0  0  0  0  0  0  0  0  0
   10.3704   -4.9638   18.6510 C   0  0  0  0  0  0  0  0  0  0  0  0
    5.5935   -8.6419   17.4234 C   0  0  0  0  0  0  0  0  0  0  0  0
   13.0726   -4.6648   23.3394 O   0  0  0  0  0  0  0  0  0  0  0  0
    8.5955   -6.0705   17.3996 C   0  0  0  0  0  0  0  0  0  0  0  0
    4.6223   -8.3832   16.5030 C   0  0  0  0  0  0  0  0  0  0  0  0
   12.4690   -5.2624   19.9024 C   0  0  0  0  0  0  0  0  0  0  0  0
    3.2548   -9.9919   17.4189 C   0  0  0  0  0  0  0  0  0  0  0  0
   12.4767   -4.7393   22.1790 C   0  0  0  0  0  0  0  0  0  0  0  0
    7.8593   -5.3772   15.3569 N   0  0  0  0  0  0  0  0  0  0  0  0
    7.4412   -6.9038   16.9283 C   0  0  0  0  0  0  0  0  0  0  0  0
  1 21  4  0
  1 23  4  0
  2  5  1  0
  2 13  4  0
  2 16  4  0
  3  6  4  0
  3  7  4  0
  4 13  4  0
  4 19  4  0
  4 24  4  0
  6 23  4  0
  7 16  1  0
  7 21  4  0
  8 18  1  0
  9 20  4  0
  9 22  4  0
 10 17  1  0
 10 25  1  0
 11 16  4  0
 11 19  4  0
 12 15  4  0
 12 22  4  0
 14 24  4  0
 14 25  4  0
 15 17  4  0
 17 20  4  0
 18 23  1  0
 19 25  4  0
M  END
$$$$

 Created by Python create_sdf_string function

 25 28  0  0  0  0  0  0  0  0999 V2000
   13.1533   -5.2399   21.0682 C   0  0  0  0  0  0  0  0  0  0  0  0
   10.4729   -4.0295   17.6135 C   0  0  0  0  0  0  0  0  0  0  0  0
   10.4789   -4.3641   20.9564 C   0  0  0  0  0  0  0  0  0  0  0  0
    8.7421   -5.1412   16.3650 C   0  0  0  0  0  0  0  0  0  0  0  0
   11.4353   -2.9204   17.8044 C   0  0  0  0  0  0  0  0  0  0  0  0
   11.1529   -4.3028   22.1277 C   0  0  0  0  0  0  0  0  0  0  0  0
   11.1290   -4.8502   19.8052 C   0  0  0  0  0  0  0  0  0  0  0  0
   12.4329   -4.2159   24.4224 C   0  0  0  0  0  0  0  0  0  0  0  0
    3.4740   -9.0387   16.5022 C   0  0  0  0  0  0  0  0  0  0  0  0
    6.8384   -7.9290   17.5282 N   0  0  0  0  0  0  0  0  0  0  0  0
    9.4126   -5.9853   18.4899 C   0  0  0  0  0  0  0  0  0  0  0  0
    4.2064  -10.3242   18.3302 C   0  0  0  0  0  0  0  0  0  0  0  0
    9.6599   -4.1551   16.4796 N   0  0  0  0  0  0  0  0  0  0  0  0
    7.0644   -6.4612   15.7375 N   0  0  0  0  0  0  0  0  0  0  0  0
    5.3549   -9.6322   18.3190 C   0  0  0  0  0  0  0  0  0  0  0  0
   10.3704   -4.9638   18.6510 C   0  0  0  0  0  0  0  0  0  0  0  0
    5.5935   -8.6419   17.4234 C   0  0  0  0  0  0  0  0  0  0  0  0
   13.0726   -4.6648   23.3394 O   0  0  0  0  0  0  0  0  0  0  0  0
    8.5955   -6.0705   17.3996 C   0  0  0  0  0  0  0  0  0  0  0  0
    4.6223   -8.3832   16.5030 C   0  0  0  0  0  0  0  0  0  0  0  0
   12.4690   -5.2624   19.9024 C   0  0  0  0  0  0  0  0  0  0  0  0
    3.2548   -9.9919   17.4189 C   0  0  0  0  0  0  0  0  0  0  0  0
   12.4767   -4.7393   22.1790 C   0  0  0  0  0  0  0  0  0  0  0  0
    7.8593   -5.3772   15.3569 N   0  0  0  0  0  0  0  0  0  0  0  0
    7.4412   -6.9038   16.9283 C   0  0  0  0  0  0  0  0  0  0  0  0
  1 21  4  0
  1 23  4  0
  2  5  1  0
  2 13  4  0
  2 16  4  0
  3  6  4  0
  3  7  4  0
  4 13  4  0
  4 19  4  0
  4 24  4  0
  6 23  4  0
  7 16  1  0
  7 21  4  0
  8 18  1  0
  9 20  4  0
  9 22  4  0
 10 17  1  0
 10 25  1  0
 11 16  4  0
 11 19  4  0
 12 15  4  0
 12 22  4  0
 14 24  4  0
 14 25  4  0
 15 17  4  0
 17 20  4  0
 18 23  1  0
 19 25  4  0
M  END
$$$$

 Created by Python create_sdf_string function

 25 28  0  0  0  0  0  0  0  0999 V2000
   13.1533   -5.2399   21.0682 C   0  0  0  0  0  0  0  0  0  0  0  0
   10.4729   -4.0295   17.6135 C   0  0  0  0  0  0  0  0  0  0  0  0
   10.4789   -4.3641   20.9564 C   0  0  0  0  0  0  0  0  0  0  0  0
    8.7421   -5.1412   16.3650 C   0  0  0  0  0  0  0  0  0  0  0  0
   11.4353   -2.9204   17.8044 C   0  0  0  0  0  0  0  0  0  0  0  0
   11.1529   -4.3028   22.1277 C   0  0  0  0  0  0  0  0  0  0  0  0
   11.1290   -4.8502   19.8052 C   0  0  0  0  0  0  0  0  0  0  0  0
   12.4329   -4.2159   24.4224 C   0  0  0  0  0  0  0  0  0  0  0  0
    3.4740   -9.0387   16.5022 C   0  0  0  0  0  0  0  0  0  0  0  0
    6.8384   -7.9290   17.5282 N   0  0  0  0  0  0  0  0  0  0  0  0
    9.4126   -5.9853   18.4899 C   0  0  0  0  0  0  0  0  0  0  0  0
    4.2064  -10.3242   18.3302 C   0  0  0  0  0  0  0  0  0  0  0  0
    9.6599   -4.1551   16.4796 N   0  0  0  0  0  0  0  0  0  0  0  0
    7.0644   -6.4612   15.7375 N   0  0  0  0  0  0  0  0  0  0  0  0
    5.3549   -9.6322   18.3190 C   0  0  0  0  0  0  0  0  0  0  0  0
   10.3704   -4.9638   18.6510 C   0  0  0  0  0  0  0  0  0  0  0  0
    5.5935   -8.6419   17.4234 C   0  0  0  0  0  0  0  0  0  0  0  0
   13.0726   -4.6648   23.3394 O   0  0  0  0  0  0  0  0  0  0  0  0
    8.5955   -6.0705   17.3996 C   0  0  0  0  0  0  0  0  0  0  0  0
    4.6223   -8.3832   16.5030 C   0  0  0  0  0  0  0  0  0  0  0  0
   12.4690   -5.2624   19.9024 C   0  0  0  0  0  0  0  0  0  0  0  0
    3.2548   -9.9919   17.4189 C   0  0  0  0  0  0  0  0  0  0  0  0
   12.4767   -4.7393   22.1790 C   0  0  0  0  0  0  0  0  0  0  0  0
    7.8593   -5.3772   15.3569 N   0  0  0  0  0  0  0  0  0  0  0  0
    7.4412   -6.9038   16.9283 C   0  0  0  0  0  0  0  0  0  0  0  0
  1 21  4  0
  1 23  4  0
  2  5  1  0
  2 13  4  0
  2 16  4  0
  3  6  4  0
  3  7  4  0
  4 13  4  0
  4 19  4  0
  4 24  4  0
  6 23  4  0
  7 16  1  0
  7 21  4  0
  8 18  1  0
  9 20  4  0
  9 22  4  0
 10 17  1  0
 10 25  1  0
 11 16  4  0
 11 19  4  0
 12 15  4  0
 12 22  4  0
 14 24  4  0
 14 25  4  0
 15 17  4  0
 17 20  4  0
 18 23  1  0
 19 25  4  0
M  END
$$$$

 Created by Python create_sdf_string function

 25 28  0  0  0  0  0  0  0  0999 V2000
   13.1533   -5.2399   21.0682 C   0  0  0  0  0  0  0  0  0  0  0  0
   10.4729   -4.0295   17.6135 C   0  0  0  0  0  0  0  0  0  0  0  0
   10.4789   -4.3641   20.9564 C   0  0  0  0  0  0  0  0  0  0  0  0
    8.7421   -5.1412   16.3650 C   0  0  0  0  0  0  0  0  0  0  0  0
   11.4353   -2.9204   17.8044 C   0  0  0  0  0  0  0  0  0  0  0  0
   11.1529   -4.3028   22.1277 C   0  0  0  0  0  0  0  0  0  0  0  0
   11.1290   -4.8502   19.8052 C   0  0  0  0  0  0  0  0  0  0  0  0
   12.4329   -4.2159   24.4224 C   0  0  0  0  0  0  0  0  0  0  0  0
    3.4740   -9.0387   16.5022 C   0  0  0  0  0  0  0  0  0  0  0  0
    6.8384   -7.9290   17.5282 N   0  0  0  0  0  0  0  0  0  0  0  0
    9.4126   -5.9853   18.4899 C   0  0  0  0  0  0  0  0  0  0  0  0
    4.2064  -10.3242   18.3302 C   0  0  0  0  0  0  0  0  0  0  0  0
    9.6599   -4.1551   16.4796 N   0  0  0  0  0  0  0  0  0  0  0  0
    7.0644   -6.4612   15.7375 N   0  0  0  0  0  0  0  0  0  0  0  0
    5.3549   -9.6322   18.3190 C   0  0  0  0  0  0  0  0  0  0  0  0
   10.3704   -4.9638   18.6510 C   0  0  0  0  0  0  0  0  0  0  0  0
    5.5935   -8.6419   17.4234 C   0  0  0  0  0  0  0  0  0  0  0  0
   13.0726   -4.6648   23.3394 O   0  0  0  0  0  0  0  0  0  0  0  0
    8.5955   -6.0705   17.3996 C   0  0  0  0  0  0  0  0  0  0  0  0
    4.6223   -8.3832   16.5030 C   0  0  0  0  0  0  0  0  0  0  0  0
   12.4690   -5.2624   19.9024 C   0  0  0  0  0  0  0  0  0  0  0  0
    3.2548   -9.9919   17.4189 C   0  0  0  0  0  0  0  0  0  0  0  0
   12.4767   -4.7393   22.1790 C   0  0  0  0  0  0  0  0  0  0  0  0
    7.8593   -5.3772   15.3569 N   0  0  0  0  0  0  0  0  0  0  0  0
    7.4412   -6.9038   16.9283 C   0  0  0  0  0  0  0  0  0  0  0  0
  1 21  4  0
  1 23  4  0
  2  5  1  0
  2 13  4  0
  2 16  4  0
  3  6  4  0
  3  7  4  0
  4 13  4  0
  4 19  4  0
  4 24  4  0
  6 23  4  0
  7 16  1  0
  7 21  4  0
  8 18  1  0
  9 20  4  0
  9 22  4  0
 10 17  1  0
 10 25  1  0
 11 16  4  0
 11 19  4  0
 12 15  4  0
 12 22  4  0
 14 24  4  0
 14 25  4  0
 15 17  4  0
 17 20  4  0
 18 23  1  0
 19 25  4  0
M  END
$$$$

 Created by Python create_sdf_string function

 25 28  0  0  0  0  0  0  0  0999 V2000
   13.1533   -5.2399   21.0682 C   0  0  0  0  0  0  0  0  0  0  0  0
   10.4729   -4.0295   17.6135 C   0  0  0  0  0  0  0  0  0  0  0  0
   10.4789   -4.3641   20.9564 C   0  0  0  0  0  0  0  0  0  0  0  0
    8.7421   -5.1412   16.3650 C   0  0  0  0  0  0  0  0  0  0  0  0
   11.4353   -2.9204   17.8044 C   0  0  0  0  0  0  0  0  0  0  0  0
   11.1529   -4.3028   22.1277 C   0  0  0  0  0  0  0  0  0  0  0  0
   11.1290   -4.8502   19.8052 C   0  0  0  0  0  0  0  0  0  0  0  0
   12.4329   -4.2159   24.4224 C   0  0  0  0  0  0  0  0  0  0  0  0
    3.4740   -9.0387   16.5022 C   0  0  0  0  0  0  0  0  0  0  0  0
    6.8384   -7.9290   17.5282 N   0  0  0  0  0  0  0  0  0  0  0  0
    9.4126   -5.9853   18.4899 C   0  0  0  0  0  0  0  0  0  0  0  0
    4.2064  -10.3242   18.3302 C   0  0  0  0  0  0  0  0  0  0  0  0
    9.6599   -4.1551   16.4796 N   0  0  0  0  0  0  0  0  0  0  0  0
    7.0644   -6.4612   15.7375 N   0  0  0  0  0  0  0  0  0  0  0  0
    5.3549   -9.6322   18.3190 C   0  0  0  0  0  0  0  0  0  0  0  0
   10.3704   -4.9638   18.6510 C   0  0  0  0  0  0  0  0  0  0  0  0
    5.5935   -8.6419   17.4234 C   0  0  0  0  0  0  0  0  0  0  0  0
   13.0726   -4.6648   23.3394 O   0  0  0  0  0  0  0  0  0  0  0  0
    8.5955   -6.0705   17.3996 C   0  0  0  0  0  0  0  0  0  0  0  0
    4.6223   -8.3832   16.5030 C   0  0  0  0  0  0  0  0  0  0  0  0
   12.4690   -5.2624   19.9024 C   0  0  0  0  0  0  0  0  0  0  0  0
    3.2548   -9.9919   17.4189 C   0  0  0  0  0  0  0  0  0  0  0  0
   12.4767   -4.7393   22.1790 C   0  0  0  0  0  0  0  0  0  0  0  0
    7.8593   -5.3772   15.3569 N   0  0  0  0  0  0  0  0  0  0  0  0
    7.4412   -6.9038   16.9283 C   0  0  0  0  0  0  0  0  0  0  0  0
  1 21  4  0
  1 23  4  0
  2  5  1  0
  2 13  4  0
  2 16  4  0
  3  6  4  0
  3  7  4  0
  4 13  4  0
  4 19  4  0
  4 24  4  0
  6 23  4  0
  7 16  1  0
  7 21  4  0
  8 18  1  0
  9 20  4  0
  9 22  4  0
 10 17  1  0
 10 25  1  0
 11 16  4  0
 11 19  4  0
 12 15  4  0
 12 22  4  0
 14 24  4  0
 14 25  4  0
 15 17  4  0
 17 20  4  0
 18 23  1  0
 19 25  4  0
M  END
$$$$

 Created by Python create_sdf_string function

 25 28  0  0  0  0  0  0  0  0999 V2000
   13.1533   -5.2399   21.0682 C   0  0  0  0  0  0  0  0  0  0  0  0
   10.4729   -4.0295   17.6135 C   0  0  0  0  0  0  0  0  0  0  0  0
   10.4789   -4.3641   20.9564 C   0  0  0  0  0  0  0  0  0  0  0  0
    8.7421   -5.1412   16.3650 C   0  0  0  0  0  0  0  0  0  0  0  0
   11.4353   -2.9204   17.8044 C   0  0  0  0  0  0  0  0  0  0  0  0
   11.1529   -4.3028   22.1277 C   0  0  0  0  0  0  0  0  0  0  0  0
   11.1290   -4.8502   19.8052 C   0  0  0  0  0  0  0  0  0  0  0  0
   12.4329   -4.2159   24.4224 C   0  0  0  0  0  0  0  0  0  0  0  0
    3.4740   -9.0387   16.5022 C   0  0  0  0  0  0  0  0  0  0  0  0
    6.8384   -7.9290   17.5282 N   0  0  0  0  0  0  0  0  0  0  0  0
    9.4126   -5.9853   18.4899 C   0  0  0  0  0  0  0  0  0  0  0  0
    4.2064  -10.3242   18.3302 C   0  0  0  0  0  0  0  0  0  0  0  0
    9.6599   -4.1551   16.4796 N   0  0  0  0  0  0  0  0  0  0  0  0
    7.0644   -6.4612   15.7375 N   0  0  0  0  0  0  0  0  0  0  0  0
    5.3549   -9.6322   18.3190 C   0  0  0  0  0  0  0  0  0  0  0  0
   10.3704   -4.9638   18.6510 C   0  0  0  0  0  0  0  0  0  0  0  0
    5.5935   -8.6419   17.4234 C   0  0  0  0  0  0  0  0  0  0  0  0
   13.0726   -4.6648   23.3394 O   0  0  0  0  0  0  0  0  0  0  0  0
    8.5955   -6.0705   17.3996 C   0  0  0  0  0  0  0  0  0  0  0  0
    4.6223   -8.3832   16.5030 C   0  0  0  0  0  0  0  0  0  0  0  0
   12.4690   -5.2624   19.9024 C   0  0  0  0  0  0  0  0  0  0  0  0
    3.2548   -9.9919   17.4189 C   0  0  0  0  0  0  0  0  0  0  0  0
   12.4767   -4.7393   22.1790 C   0  0  0  0  0  0  0  0  0  0  0  0
    7.8593   -5.3772   15.3569 N   0  0  0  0  0  0  0  0  0  0  0  0
    7.4412   -6.9038   16.9283 C   0  0  0  0  0  0  0  0  0  0  0  0
  1 21  4  0
  1 23  4  0
  2  5  1  0
  2 13  4  0
  2 16  4  0
  3  6  4  0
  3  7  4  0
  4 13  4  0
  4 19  4  0
  4 24  4  0
  6 23  4  0
  7 16  1  0
  7 21  4  0
  8 18  1  0
  9 20  4  0
  9 22  4  0
 10 17  1  0
 10 25  1  0
 11 16  4  0
 11 19  4  0
 12 15  4  0
 12 22  4  0
 14 24  4  0
 14 25  4  0
 15 17  4  0
 17 20  4  0
 18 23  1  0
 19 25  4  0
M  END
$$$$

 Created by Python create_sdf_string function

 25 28  0  0  0  0  0  0  0  0999 V2000
   13.1533   -5.2399   21.0682 C   0  0  0  0  0  0  0  0  0  0  0  0
   10.4729   -4.0295   17.6135 C   0  0  0  0  0  0  0  0  0  0  0  0
   10.4789   -4.3641   20.9564 C   0  0  0  0  0  0  0  0  0  0  0  0
    8.7421   -5.1412   16.3650 C   0  0  0  0  0  0  0  0  0  0  0  0
   11.4353   -2.9204   17.8044 C   0  0  0  0  0  0  0  0  0  0  0  0
   11.1529   -4.3028   22.1277 C   0  0  0  0  0  0  0  0  0  0  0  0
   11.1290   -4.8502   19.8052 C   0  0  0  0  0  0  0  0  0  0  0  0
   12.4329   -4.2159   24.4224 C   0  0  0  0  0  0  0  0  0  0  0  0
    3.4740   -9.0387   16.5022 C   0  0  0  0  0  0  0  0  0  0  0  0
    6.8384   -7.9290   17.5282 N   0  0  0  0  0  0  0  0  0  0  0  0
    9.4126   -5.9853   18.4899 C   0  0  0  0  0  0  0  0  0  0  0  0
    4.2064  -10.3242   18.3302 C   0  0  0  0  0  0  0  0  0  0  0  0
    9.6599   -4.1551   16.4796 N   0  0  0  0  0  0  0  0  0  0  0  0
    7.0644   -6.4612   15.7375 N   0  0  0  0  0  0  0  0  0  0  0  0
    5.3549   -9.6322   18.3190 C   0  0  0  0  0  0  0  0  0  0  0  0
   10.3704   -4.9638   18.6510 C   0  0  0  0  0  0  0  0  0  0  0  0
    5.5935   -8.6419   17.4234 C   0  0  0  0  0  0  0  0  0  0  0  0
   13.0726   -4.6648   23.3394 O   0  0  0  0  0  0  0  0  0  0  0  0
    8.5955   -6.0705   17.3996 C   0  0  0  0  0  0  0  0  0  0  0  0
    4.6223   -8.3832   16.5030 C   0  0  0  0  0  0  0  0  0  0  0  0
   12.4690   -5.2624   19.9024 C   0  0  0  0  0  0  0  0  0  0  0  0
    3.2548   -9.9919   17.4189 C   0  0  0  0  0  0  0  0  0  0  0  0
   12.4767   -4.7393   22.1790 C   0  0  0  0  0  0  0  0  0  0  0  0
    7.8593   -5.3772   15.3569 N   0  0  0  0  0  0  0  0  0  0  0  0
    7.4412   -6.9038   16.9283 C   0  0  0  0  0  0  0  0  0  0  0  0
  1 21  4  0
  1 23  4  0
  2  5  1  0
  2 13  4  0
  2 16  4  0
  3  6  4  0
  3  7  4  0
  4 13  4  0
  4 19  4  0
  4 24  4  0
  6 23  4  0
  7 16  1  0
  7 21  4  0
  8 18  1  0
  9 20  4  0
  9 22  4  0
 10 17  1  0
 10 25  1  0
 11 16  4  0
 11 19  4  0
 12 15  4  0
 12 22  4  0
 14 24  4  0
 14 25  4  0
 15 17  4  0
 17 20  4  0
 18 23  1  0
 19 25  4  0
M  END
$$$$

 Created by Python create_sdf_string function

 25 28  0  0  0  0  0  0  0  0999 V2000
   13.1533   -5.2399   21.0682 C   0  0  0  0  0  0  0  0  0  0  0  0
   10.4729   -4.0295   17.6135 C   0  0  0  0  0  0  0  0  0  0  0  0
   10.4789   -4.3641   20.9564 C   0  0  0  0  0  0  0  0  0  0  0  0
    8.7421   -5.1412   16.3650 C   0  0  0  0  0  0  0  0  0  0  0  0
   11.4353   -2.9204   17.8044 C   0  0  0  0  0  0  0  0  0  0  0  0
   11.1529   -4.3028   22.1277 C   0  0  0  0  0  0  0  0  0  0  0  0
   11.1290   -4.8502   19.8052 C   0  0  0  0  0  0  0  0  0  0  0  0
   12.4329   -4.2159   24.4224 C   0  0  0  0  0  0  0  0  0  0  0  0
    3.4740   -9.0387   16.5022 C   0  0  0  0  0  0  0  0  0  0  0  0
    6.8384   -7.9290   17.5282 N   0  0  0  0  0  0  0  0  0  0  0  0
    9.4126   -5.9853   18.4899 C   0  0  0  0  0  0  0  0  0  0  0  0
    4.2064  -10.3242   18.3302 C   0  0  0  0  0  0  0  0  0  0  0  0
    9.6599   -4.1551   16.4796 N   0  0  0  0  0  0  0  0  0  0  0  0
    7.0644   -6.4612   15.7375 N   0  0  0  0  0  0  0  0  0  0  0  0
    5.3549   -9.6322   18.3190 C   0  0  0  0  0  0  0  0  0  0  0  0
   10.3704   -4.9638   18.6510 C   0  0  0  0  0  0  0  0  0  0  0  0
    5.5935   -8.6419   17.4234 C   0  0  0  0  0  0  0  0  0  0  0  0
   13.0726   -4.6648   23.3394 O   0  0  0  0  0  0  0  0  0  0  0  0
    8.5955   -6.0705   17.3996 C   0  0  0  0  0  0  0  0  0  0  0  0
    4.6223   -8.3832   16.5030 C   0  0  0  0  0  0  0  0  0  0  0  0
   12.4690   -5.2624   19.9024 C   0  0  0  0  0  0  0  0  0  0  0  0
    3.2548   -9.9919   17.4189 C   0  0  0  0  0  0  0  0  0  0  0  0
   12.4767   -4.7393   22.1790 C   0  0  0  0  0  0  0  0  0  0  0  0
    7.8593   -5.3772   15.3569 N   0  0  0  0  0  0  0  0  0  0  0  0
    7.4412   -6.9038   16.9283 C   0  0  0  0  0  0  0  0  0  0  0  0
  1 21  4  0
  1 23  4  0
  2  5  1  0
  2 13  4  0
  2 16  4  0
  3  6  4  0
  3  7  4  0
  4 13  4  0
  4 19  4  0
  4 24  4  0
  6 23  4  0
  7 16  1  0
  7 21  4  0
  8 18  1  0
  9 20  4  0
  9 22  4  0
 10 17  1  0
 10 25  1  0
 11 16  4  0
 11 19  4  0
 12 15  4  0
 12 22  4  0
 14 24  4  0
 14 25  4  0
 15 17  4  0
 17 20  4  0
 18 23  1  0
 19 25  4  0
M  END
$$$$

 Created by Python create_sdf_string function

 25 28  0  0  0  0  0  0  0  0999 V2000
   13.1533   -5.2399   21.0682 C   0  0  0  0  0  0  0  0  0  0  0  0
   10.4729   -4.0295   17.6135 C   0  0  0  0  0  0  0  0  0  0  0  0
   10.4789   -4.3641   20.9564 C   0  0  0  0  0  0  0  0  0  0  0  0
    8.7421   -5.1412   16.3650 C   0  0  0  0  0  0  0  0  0  0  0  0
   11.4353   -2.9204   17.8044 C   0  0  0  0  0  0  0  0  0  0  0  0
   11.1529   -4.3028   22.1277 C   0  0  0  0  0  0  0  0  0  0  0  0
   11.1290   -4.8502   19.8052 C   0  0  0  0  0  0  0  0  0  0  0  0
   12.4329   -4.2159   24.4224 C   0  0  0  0  0  0  0  0  0  0  0  0
    3.4740   -9.0387   16.5022 C   0  0  0  0  0  0  0  0  0  0  0  0
    6.8384   -7.9290   17.5282 N   0  0  0  0  0  0  0  0  0  0  0  0
    9.4126   -5.9853   18.4899 C   0  0  0  0  0  0  0  0  0  0  0  0
    4.2064  -10.3242   18.3302 C   0  0  0  0  0  0  0  0  0  0  0  0
    9.6599   -4.1551   16.4796 N   0  0  0  0  0  0  0  0  0  0  0  0
    7.0644   -6.4612   15.7375 N   0  0  0  0  0  0  0  0  0  0  0  0
    5.3549   -9.6322   18.3190 C   0  0  0  0  0  0  0  0  0  0  0  0
   10.3704   -4.9638   18.6510 C   0  0  0  0  0  0  0  0  0  0  0  0
    5.5935   -8.6419   17.4234 C   0  0  0  0  0  0  0  0  0  0  0  0
   13.0726   -4.6648   23.3394 O   0  0  0  0  0  0  0  0  0  0  0  0
    8.5955   -6.0705   17.3996 C   0  0  0  0  0  0  0  0  0  0  0  0
    4.6223   -8.3832   16.5030 C   0  0  0  0  0  0  0  0  0  0  0  0
   12.4690   -5.2624   19.9024 C   0  0  0  0  0  0  0  0  0  0  0  0
    3.2548   -9.9919   17.4189 C   0  0  0  0  0  0  0  0  0  0  0  0
   12.4767   -4.7393   22.1790 C   0  0  0  0  0  0  0  0  0  0  0  0
    7.8593   -5.3772   15.3569 N   0  0  0  0  0  0  0  0  0  0  0  0
    7.4412   -6.9038   16.9283 C   0  0  0  0  0  0  0  0  0  0  0  0
  1 21  4  0
  1 23  4  0
  2  5  1  0
  2 13  4  0
  2 16  4  0
  3  6  4  0
  3  7  4  0
  4 13  4  0
  4 19  4  0
  4 24  4  0
  6 23  4  0
  7 16  1  0
  7 21  4  0
  8 18  1  0
  9 20  4  0
  9 22  4  0
 10 17  1  0
 10 25  1  0
 11 16  4  0
 11 19  4  0
 12 15  4  0
 12 22  4  0
 14 24  4  0
 14 25  4  0
 15 17  4  0
 17 20  4  0
 18 23  1  0
 19 25  4  0
M  END
$$$$

 Created by Python create_sdf_string function

 25 28  0  0  0  0  0  0  0  0999 V2000
   13.1533   -5.2399   21.0682 C   0  0  0  0  0  0  0  0  0  0  0  0
   10.4729   -4.0295   17.6135 C   0  0  0  0  0  0  0  0  0  0  0  0
   10.4789   -4.3641   20.9564 C   0  0  0  0  0  0  0  0  0  0  0  0
    8.7421   -5.1412   16.3650 C   0  0  0  0  0  0  0  0  0  0  0  0
   11.4353   -2.9204   17.8044 C   0  0  0  0  0  0  0  0  0  0  0  0
   11.1529   -4.3028   22.1277 C   0  0  0  0  0  0  0  0  0  0  0  0
   11.1290   -4.8502   19.8052 C   0  0  0  0  0  0  0  0  0  0  0  0
   12.4329   -4.2159   24.4224 C   0  0  0  0  0  0  0  0  0  0  0  0
    3.4740   -9.0387   16.5022 C   0  0  0  0  0  0  0  0  0  0  0  0
    6.8384   -7.9290   17.5282 N   0  0  0  0  0  0  0  0  0  0  0  0
    9.4126   -5.9853   18.4899 C   0  0  0  0  0  0  0  0  0  0  0  0
    4.2064  -10.3242   18.3302 C   0  0  0  0  0  0  0  0  0  0  0  0
    9.6599   -4.1551   16.4796 N   0  0  0  0  0  0  0  0  0  0  0  0
    7.0644   -6.4612   15.7375 N   0  0  0  0  0  0  0  0  0  0  0  0
    5.3549   -9.6322   18.3190 C   0  0  0  0  0  0  0  0  0  0  0  0
   10.3704   -4.9638   18.6510 C   0  0  0  0  0  0  0  0  0  0  0  0
    5.5935   -8.6419   17.4234 C   0  0  0  0  0  0  0  0  0  0  0  0
   13.0726   -4.6648   23.3394 O   0  0  0  0  0  0  0  0  0  0  0  0
    8.5955   -6.0705   17.3996 C   0  0  0  0  0  0  0  0  0  0  0  0
    4.6223   -8.3832   16.5030 C   0  0  0  0  0  0  0  0  0  0  0  0
   12.4690   -5.2624   19.9024 C   0  0  0  0  0  0  0  0  0  0  0  0
    3.2548   -9.9919   17.4189 C   0  0  0  0  0  0  0  0  0  0  0  0
   12.4767   -4.7393   22.1790 C   0  0  0  0  0  0  0  0  0  0  0  0
    7.8593   -5.3772   15.3569 N   0  0  0  0  0  0  0  0  0  0  0  0
    7.4412   -6.9038   16.9283 C   0  0  0  0  0  0  0  0  0  0  0  0
  1 21  4  0
  1 23  4  0
  2  5  1  0
  2 13  4  0
  2 16  4  0
  3  6  4  0
  3  7  4  0
  4 13  4  0
  4 19  4  0
  4 24  4  0
  6 23  4  0
  7 16  1  0
  7 21  4  0
  8 18  1  0
  9 20  4  0
  9 22  4  0
 10 17  1  0
 10 25  1  0
 11 16  4  0
 11 19  4  0
 12 15  4  0
 12 22  4  0
 14 24  4  0
 14 25  4  0
 15 17  4  0
 17 20  4  0
 18 23  1  0
 19 25  4  0
M  END
$$$$

 Created by Python create_sdf_string function

 25 28  0  0  0  0  0  0  0  0999 V2000
   13.1533   -5.2399   21.0682 C   0  0  0  0  0  0  0  0  0  0  0  0
   10.4729   -4.0295   17.6135 C   0  0  0  0  0  0  0  0  0  0  0  0
   10.4789   -4.3641   20.9564 C   0  0  0  0  0  0  0  0  0  0  0  0
    8.7421   -5.1412   16.3650 C   0  0  0  0  0  0  0  0  0  0  0  0
   11.4353   -2.9204   17.8044 C   0  0  0  0  0  0  0  0  0  0  0  0
   11.1529   -4.3028   22.1277 C   0  0  0  0  0  0  0  0  0  0  0  0
   11.1290   -4.8502   19.8052 C   0  0  0  0  0  0  0  0  0  0  0  0
   12.4329   -4.2159   24.4224 C   0  0  0  0  0  0  0  0  0  0  0  0
    3.4740   -9.0387   16.5022 C   0  0  0  0  0  0  0  0  0  0  0  0
    6.8384   -7.9290   17.5282 N   0  0  0  0  0  0  0  0  0  0  0  0
    9.4126   -5.9853   18.4899 C   0  0  0  0  0  0  0  0  0  0  0  0
    4.2064  -10.3242   18.3302 C   0  0  0  0  0  0  0  0  0  0  0  0
    9.6599   -4.1551   16.4796 N   0  0  0  0  0  0  0  0  0  0  0  0
    7.0644   -6.4612   15.7375 N   0  0  0  0  0  0  0  0  0  0  0  0
    5.3549   -9.6322   18.3190 C   0  0  0  0  0  0  0  0  0  0  0  0
   10.3704   -4.9638   18.6510 C   0  0  0  0  0  0  0  0  0  0  0  0
    5.5935   -8.6419   17.4234 C   0  0  0  0  0  0  0  0  0  0  0  0
   13.0726   -4.6648   23.3394 O   0  0  0  0  0  0  0  0  0  0  0  0
    8.5955   -6.0705   17.3996 C   0  0  0  0  0  0  0  0  0  0  0  0
    4.6223   -8.3832   16.5030 C   0  0  0  0  0  0  0  0  0  0  0  0
   12.4690   -5.2624   19.9024 C   0  0  0  0  0  0  0  0  0  0  0  0
    3.2548   -9.9919   17.4189 C   0  0  0  0  0  0  0  0  0  0  0  0
   12.4767   -4.7393   22.1790 C   0  0  0  0  0  0  0  0  0  0  0  0
    7.8593   -5.3772   15.3569 N   0  0  0  0  0  0  0  0  0  0  0  0
    7.4412   -6.9038   16.9283 C   0  0  0  0  0  0  0  0  0  0  0  0
  1 21  4  0
  1 23  4  0
  2  5  1  0
  2 13  4  0
  2 16  4  0
  3  6  4  0
  3  7  4  0
  4 13  4  0
  4 19  4  0
  4 24  4  0
  6 23  4  0
  7 16  1  0
  7 21  4  0
  8 18  1  0
  9 20  4  0
  9 22  4  0
 10 17  1  0
 10 25  1  0
 11 16  4  0
 11 19  4  0
 12 15  4  0
 12 22  4  0
 14 24  4  0
 14 25  4  0
 15 17  4  0
 17 20  4  0
 18 23  1  0
 19 25  4  0
M  END
$$$$

 Created by Python create_sdf_string function

 25 28  0  0  0  0  0  0  0  0999 V2000
   13.1533   -5.2399   21.0682 C   0  0  0  0  0  0  0  0  0  0  0  0
   10.4729   -4.0295   17.6135 C   0  0  0  0  0  0  0  0  0  0  0  0
   10.4789   -4.3641   20.9564 C   0  0  0  0  0  0  0  0  0  0  0  0
    8.7421   -5.1412   16.3650 C   0  0  0  0  0  0  0  0  0  0  0  0
   11.4353   -2.9204   17.8044 C   0  0  0  0  0  0  0  0  0  0  0  0
   11.1529   -4.3028   22.1277 C   0  0  0  0  0  0  0  0  0  0  0  0
   11.1290   -4.8502   19.8052 C   0  0  0  0  0  0  0  0  0  0  0  0
   12.4329   -4.2159   24.4224 C   0  0  0  0  0  0  0  0  0  0  0  0
    3.4740   -9.0387   16.5022 C   0  0  0  0  0  0  0  0  0  0  0  0
    6.8384   -7.9290   17.5282 N   0  0  0  0  0  0  0  0  0  0  0  0
    9.4126   -5.9853   18.4899 C   0  0  0  0  0  0  0  0  0  0  0  0
    4.2064  -10.3242   18.3302 C   0  0  0  0  0  0  0  0  0  0  0  0
    9.6599   -4.1551   16.4796 N   0  0  0  0  0  0  0  0  0  0  0  0
    7.0644   -6.4612   15.7375 N   0  0  0  0  0  0  0  0  0  0  0  0
    5.3549   -9.6322   18.3190 C   0  0  0  0  0  0  0  0  0  0  0  0
   10.3704   -4.9638   18.6510 C   0  0  0  0  0  0  0  0  0  0  0  0
    5.5935   -8.6419   17.4234 C   0  0  0  0  0  0  0  0  0  0  0  0
   13.0726   -4.6648   23.3394 O   0  0  0  0  0  0  0  0  0  0  0  0
    8.5955   -6.0705   17.3996 C   0  0  0  0  0  0  0  0  0  0  0  0
    4.6223   -8.3832   16.5030 C   0  0  0  0  0  0  0  0  0  0  0  0
   12.4690   -5.2624   19.9024 C   0  0  0  0  0  0  0  0  0  0  0  0
    3.2548   -9.9919   17.4189 C   0  0  0  0  0  0  0  0  0  0  0  0
   12.4767   -4.7393   22.1790 C   0  0  0  0  0  0  0  0  0  0  0  0
    7.8593   -5.3772   15.3569 N   0  0  0  0  0  0  0  0  0  0  0  0
    7.4412   -6.9038   16.9283 C   0  0  0  0  0  0  0  0  0  0  0  0
  1 21  4  0
  1 23  4  0
  2  5  1  0
  2 13  4  0
  2 16  4  0
  3  6  4  0
  3  7  4  0
  4 13  4  0
  4 19  4  0
  4 24  4  0
  6 23  4  0
  7 16  1  0
  7 21  4  0
  8 18  1  0
  9 20  4  0
  9 22  4  0
 10 17  1  0
 10 25  1  0
 11 16  4  0
 11 19  4  0
 12 15  4  0
 12 22  4  0
 14 24  4  0
 14 25  4  0
 15 17  4  0
 17 20  4  0
 18 23  1  0
 19 25  4  0
M  END
$$$$

 Created by Python create_sdf_string function

 25 28  0  0  0  0  0  0  0  0999 V2000
   13.1533   -5.2399   21.0682 C   0  0  0  0  0  0  0  0  0  0  0  0
   10.4729   -4.0295   17.6135 C   0  0  0  0  0  0  0  0  0  0  0  0
   10.4789   -4.3641   20.9564 C   0  0  0  0  0  0  0  0  0  0  0  0
    8.7421   -5.1412   16.3650 C   0  0  0  0  0  0  0  0  0  0  0  0
   11.4353   -2.9204   17.8044 C   0  0  0  0  0  0  0  0  0  0  0  0
   11.1529   -4.3028   22.1277 C   0  0  0  0  0  0  0  0  0  0  0  0
   11.1290   -4.8502   19.8052 C   0  0  0  0  0  0  0  0  0  0  0  0
   12.4329   -4.2159   24.4224 C   0  0  0  0  0  0  0  0  0  0  0  0
    3.4740   -9.0387   16.5022 C   0  0  0  0  0  0  0  0  0  0  0  0
    6.8384   -7.9290   17.5282 N   0  0  0  0  0  0  0  0  0  0  0  0
    9.4126   -5.9853   18.4899 C   0  0  0  0  0  0  0  0  0  0  0  0
    4.2064  -10.3242   18.3302 C   0  0  0  0  0  0  0  0  0  0  0  0
    9.6599   -4.1551   16.4796 N   0  0  0  0  0  0  0  0  0  0  0  0
    7.0644   -6.4612   15.7375 N   0  0  0  0  0  0  0  0  0  0  0  0
    5.3549   -9.6322   18.3190 C   0  0  0  0  0  0  0  0  0  0  0  0
   10.3704   -4.9638   18.6510 C   0  0  0  0  0  0  0  0  0  0  0  0
    5.5935   -8.6419   17.4234 C   0  0  0  0  0  0  0  0  0  0  0  0
   13.0726   -4.6648   23.3394 O   0  0  0  0  0  0  0  0  0  0  0  0
    8.5955   -6.0705   17.3996 C   0  0  0  0  0  0  0  0  0  0  0  0
    4.6223   -8.3832   16.5030 C   0  0  0  0  0  0  0  0  0  0  0  0
   12.4690   -5.2624   19.9024 C   0  0  0  0  0  0  0  0  0  0  0  0
    3.2548   -9.9919   17.4189 C   0  0  0  0  0  0  0  0  0  0  0  0
   12.4767   -4.7393   22.1790 C   0  0  0  0  0  0  0  0  0  0  0  0
    7.8593   -5.3772   15.3569 N   0  0  0  0  0  0  0  0  0  0  0  0
    7.4412   -6.9038   16.9283 C   0  0  0  0  0  0  0  0  0  0  0  0
  1 21  4  0
  1 23  4  0
  2  5  1  0
  2 13  4  0
  2 16  4  0
  3  6  4  0
  3  7  4  0
  4 13  4  0
  4 19  4  0
  4 24  4  0
  6 23  4  0
  7 16  1  0
  7 21  4  0
  8 18  1  0
  9 20  4  0
  9 22  4  0
 10 17  1  0
 10 25  1  0
 11 16  4  0
 11 19  4  0
 12 15  4  0
 12 22  4  0
 14 24  4  0
 14 25  4  0
 15 17  4  0
 17 20  4  0
 18 23  1  0
 19 25  4  0
M  END
$$$$

 Created by Python create_sdf_string function

 25 28  0  0  0  0  0  0  0  0999 V2000
   13.1533   -5.2399   21.0682 C   0  0  0  0  0  0  0  0  0  0  0  0
   10.4729   -4.0295   17.6135 C   0  0  0  0  0  0  0  0  0  0  0  0
   10.4789   -4.3641   20.9564 C   0  0  0  0  0  0  0  0  0  0  0  0
    8.7421   -5.1412   16.3650 C   0  0  0  0  0  0  0  0  0  0  0  0
   11.4353   -2.9204   17.8044 C   0  0  0  0  0  0  0  0  0  0  0  0
   11.1529   -4.3028   22.1277 C   0  0  0  0  0  0  0  0  0  0  0  0
   11.1290   -4.8502   19.8052 C   0  0  0  0  0  0  0  0  0  0  0  0
   12.4329   -4.2159   24.4224 C   0  0  0  0  0  0  0  0  0  0  0  0
    3.4740   -9.0387   16.5022 C   0  0  0  0  0  0  0  0  0  0  0  0
    6.8384   -7.9290   17.5282 N   0  0  0  0  0  0  0  0  0  0  0  0
    9.4126   -5.9853   18.4899 C   0  0  0  0  0  0  0  0  0  0  0  0
    4.2064  -10.3242   18.3302 C   0  0  0  0  0  0  0  0  0  0  0  0
    9.6599   -4.1551   16.4796 N   0  0  0  0  0  0  0  0  0  0  0  0
    7.0644   -6.4612   15.7375 N   0  0  0  0  0  0  0  0  0  0  0  0
    5.3549   -9.6322   18.3190 C   0  0  0  0  0  0  0  0  0  0  0  0
   10.3704   -4.9638   18.6510 C   0  0  0  0  0  0  0  0  0  0  0  0
    5.5935   -8.6419   17.4234 C   0  0  0  0  0  0  0  0  0  0  0  0
   13.0726   -4.6648   23.3394 O   0  0  0  0  0  0  0  0  0  0  0  0
    8.5955   -6.0705   17.3996 C   0  0  0  0  0  0  0  0  0  0  0  0
    4.6223   -8.3832   16.5030 C   0  0  0  0  0  0  0  0  0  0  0  0
   12.4690   -5.2624   19.9024 C   0  0  0  0  0  0  0  0  0  0  0  0
    3.2548   -9.9919   17.4189 C   0  0  0  0  0  0  0  0  0  0  0  0
   12.4767   -4.7393   22.1790 C   0  0  0  0  0  0  0  0  0  0  0  0
    7.8593   -5.3772   15.3569 N   0  0  0  0  0  0  0  0  0  0  0  0
    7.4412   -6.9038   16.9283 C   0  0  0  0  0  0  0  0  0  0  0  0
  1 21  4  0
  1 23  4  0
  2  5  1  0
  2 13  4  0
  2 16  4  0
  3  6  4  0
  3  7  4  0
  4 13  4  0
  4 19  4  0
  4 24  4  0
  6 23  4  0
  7 16  1  0
  7 21  4  0
  8 18  1  0
  9 20  4  0
  9 22  4  0
 10 17  1  0
 10 25  1  0
 11 16  4  0
 11 19  4  0
 12 15  4  0
 12 22  4  0
 14 24  4  0
 14 25  4  0
 15 17  4  0
 17 20  4  0
 18 23  1  0
 19 25  4  0
M  END
$$$$

 Created by Python create_sdf_string function

 25 28  0  0  0  0  0  0  0  0999 V2000
   13.1533   -5.2399   21.0682 C   0  0  0  0  0  0  0  0  0  0  0  0
   10.4729   -4.0295   17.6135 C   0  0  0  0  0  0  0  0  0  0  0  0
   10.4789   -4.3641   20.9564 C   0  0  0  0  0  0  0  0  0  0  0  0
    8.7421   -5.1412   16.3650 C   0  0  0  0  0  0  0  0  0  0  0  0
   11.4353   -2.9204   17.8044 C   0  0  0  0  0  0  0  0  0  0  0  0
   11.1529   -4.3028   22.1277 C   0  0  0  0  0  0  0  0  0  0  0  0
   11.1290   -4.8502   19.8052 C   0  0  0  0  0  0  0  0  0  0  0  0
   12.4329   -4.2159   24.4224 C   0  0  0  0  0  0  0  0  0  0  0  0
    3.4740   -9.0387   16.5022 C   0  0  0  0  0  0  0  0  0  0  0  0
    6.8384   -7.9290   17.5282 N   0  0  0  0  0  0  0  0  0  0  0  0
    9.4126   -5.9853   18.4899 C   0  0  0  0  0  0  0  0  0  0  0  0
    4.2064  -10.3242   18.3302 C   0  0  0  0  0  0  0  0  0  0  0  0
    9.6599   -4.1551   16.4796 N   0  0  0  0  0  0  0  0  0  0  0  0
    7.0644   -6.4612   15.7375 N   0  0  0  0  0  0  0  0  0  0  0  0
    5.3549   -9.6322   18.3190 C   0  0  0  0  0  0  0  0  0  0  0  0
   10.3704   -4.9638   18.6510 C   0  0  0  0  0  0  0  0  0  0  0  0
    5.5935   -8.6419   17.4234 C   0  0  0  0  0  0  0  0  0  0  0  0
   13.0726   -4.6648   23.3394 O   0  0  0  0  0  0  0  0  0  0  0  0
    8.5955   -6.0705   17.3996 C   0  0  0  0  0  0  0  0  0  0  0  0
    4.6223   -8.3832   16.5030 C   0  0  0  0  0  0  0  0  0  0  0  0
   12.4690   -5.2624   19.9024 C   0  0  0  0  0  0  0  0  0  0  0  0
    3.2548   -9.9919   17.4189 C   0  0  0  0  0  0  0  0  0  0  0  0
   12.4767   -4.7393   22.1790 C   0  0  0  0  0  0  0  0  0  0  0  0
    7.8593   -5.3772   15.3569 N   0  0  0  0  0  0  0  0  0  0  0  0
    7.4412   -6.9038   16.9283 C   0  0  0  0  0  0  0  0  0  0  0  0
  1 21  4  0
  1 23  4  0
  2  5  1  0
  2 13  4  0
  2 16  4  0
  3  6  4  0
  3  7  4  0
  4 13  4  0
  4 19  4  0
  4 24  4  0
  6 23  4  0
  7 16  1  0
  7 21  4  0
  8 18  1  0
  9 20  4  0
  9 22  4  0
 10 17  1  0
 10 25  1  0
 11 16  4  0
 11 19  4  0
 12 15  4  0
 12 22  4  0
 14 24  4  0
 14 25  4  0
 15 17  4  0
 17 20  4  0
 18 23  1  0
 19 25  4  0
M  END
$$$$

 Created by Python create_sdf_string function

 25 28  0  0  0  0  0  0  0  0999 V2000
   13.1533   -5.2399   21.0682 C   0  0  0  0  0  0  0  0  0  0  0  0
   10.4729   -4.0295   17.6135 C   0  0  0  0  0  0  0  0  0  0  0  0
   10.4789   -4.3641   20.9564 C   0  0  0  0  0  0  0  0  0  0  0  0
    8.7421   -5.1412   16.3650 C   0  0  0  0  0  0  0  0  0  0  0  0
   11.4353   -2.9204   17.8044 C   0  0  0  0  0  0  0  0  0  0  0  0
   11.1529   -4.3028   22.1277 C   0  0  0  0  0  0  0  0  0  0  0  0
   11.1290   -4.8502   19.8052 C   0  0  0  0  0  0  0  0  0  0  0  0
   12.4329   -4.2159   24.4224 C   0  0  0  0  0  0  0  0  0  0  0  0
    3.4740   -9.0387   16.5022 C   0  0  0  0  0  0  0  0  0  0  0  0
    6.8384   -7.9290   17.5282 N   0  0  0  0  0  0  0  0  0  0  0  0
    9.4126   -5.9853   18.4899 C   0  0  0  0  0  0  0  0  0  0  0  0
    4.2064  -10.3242   18.3302 C   0  0  0  0  0  0  0  0  0  0  0  0
    9.6599   -4.1551   16.4796 N   0  0  0  0  0  0  0  0  0  0  0  0
    7.0644   -6.4612   15.7375 N   0  0  0  0  0  0  0  0  0  0  0  0
    5.3549   -9.6322   18.3190 C   0  0  0  0  0  0  0  0  0  0  0  0
   10.3704   -4.9638   18.6510 C   0  0  0  0  0  0  0  0  0  0  0  0
    5.5935   -8.6419   17.4234 C   0  0  0  0  0  0  0  0  0  0  0  0
   13.0726   -4.6648   23.3394 O   0  0  0  0  0  0  0  0  0  0  0  0
    8.5955   -6.0705   17.3996 C   0  0  0  0  0  0  0  0  0  0  0  0
    4.6223   -8.3832   16.5030 C   0  0  0  0  0  0  0  0  0  0  0  0
   12.4690   -5.2624   19.9024 C   0  0  0  0  0  0  0  0  0  0  0  0
    3.2548   -9.9919   17.4189 C   0  0  0  0  0  0  0  0  0  0  0  0
   12.4767   -4.7393   22.1790 C   0  0  0  0  0  0  0  0  0  0  0  0
    7.8593   -5.3772   15.3569 N   0  0  0  0  0  0  0  0  0  0  0  0
    7.4412   -6.9038   16.9283 C   0  0  0  0  0  0  0  0  0  0  0  0
  1 21  4  0
  1 23  4  0
  2  5  1  0
  2 13  4  0
  2 16  4  0
  3  6  4  0
  3  7  4  0
  4 13  4  0
  4 19  4  0
  4 24  4  0
  6 23  4  0
  7 16  1  0
  7 21  4  0
  8 18  1  0
  9 20  4  0
  9 22  4  0
 10 17  1  0
 10 25  1  0
 11 16  4  0
 11 19  4  0
 12 15  4  0
 12 22  4  0
 14 24  4  0
 14 25  4  0
 15 17  4  0
 17 20  4  0
 18 23  1  0
 19 25  4  0
M  END
$$$$

 Created by Python create_sdf_string function

 25 28  0  0  0  0  0  0  0  0999 V2000
   13.1533   -5.2399   21.0682 C   0  0  0  0  0  0  0  0  0  0  0  0
   10.4729   -4.0295   17.6135 C   0  0  0  0  0  0  0  0  0  0  0  0
   10.4789   -4.3641   20.9564 C   0  0  0  0  0  0  0  0  0  0  0  0
    8.7421   -5.1412   16.3650 C   0  0  0  0  0  0  0  0  0  0  0  0
   11.4353   -2.9204   17.8044 C   0  0  0  0  0  0  0  0  0  0  0  0
   11.1529   -4.3028   22.1277 C   0  0  0  0  0  0  0  0  0  0  0  0
   11.1290   -4.8502   19.8052 C   0  0  0  0  0  0  0  0  0  0  0  0
   12.4329   -4.2159   24.4224 C   0  0  0  0  0  0  0  0  0  0  0  0
    3.4740   -9.0387   16.5022 C   0  0  0  0  0  0  0  0  0  0  0  0
    6.8384   -7.9290   17.5282 N   0  0  0  0  0  0  0  0  0  0  0  0
    9.4126   -5.9853   18.4899 C   0  0  0  0  0  0  0  0  0  0  0  0
    4.2064  -10.3242   18.3302 C   0  0  0  0  0  0  0  0  0  0  0  0
    9.6599   -4.1551   16.4796 N   0  0  0  0  0  0  0  0  0  0  0  0
    7.0644   -6.4612   15.7375 N   0  0  0  0  0  0  0  0  0  0  0  0
    5.3549   -9.6322   18.3190 C   0  0  0  0  0  0  0  0  0  0  0  0
   10.3704   -4.9638   18.6510 C   0  0  0  0  0  0  0  0  0  0  0  0
    5.5935   -8.6419   17.4234 C   0  0  0  0  0  0  0  0  0  0  0  0
   13.0726   -4.6648   23.3394 O   0  0  0  0  0  0  0  0  0  0  0  0
    8.5955   -6.0705   17.3996 C   0  0  0  0  0  0  0  0  0  0  0  0
    4.6223   -8.3832   16.5030 C   0  0  0  0  0  0  0  0  0  0  0  0
   12.4690   -5.2624   19.9024 C   0  0  0  0  0  0  0  0  0  0  0  0
    3.2548   -9.9919   17.4189 C   0  0  0  0  0  0  0  0  0  0  0  0
   12.4767   -4.7393   22.1790 C   0  0  0  0  0  0  0  0  0  0  0  0
    7.8593   -5.3772   15.3569 N   0  0  0  0  0  0  0  0  0  0  0  0
    7.4412   -6.9038   16.9283 C   0  0  0  0  0  0  0  0  0  0  0  0
  1 21  4  0
  1 23  4  0
  2  5  1  0
  2 13  4  0
  2 16  4  0
  3  6  4  0
  3  7  4  0
  4 13  4  0
  4 19  4  0
  4 24  4  0
  6 23  4  0
  7 16  1  0
  7 21  4  0
  8 18  1  0
  9 20  4  0
  9 22  4  0
 10 17  1  0
 10 25  1  0
 11 16  4  0
 11 19  4  0
 12 15  4  0
 12 22  4  0
 14 24  4  0
 14 25  4  0
 15 17  4  0
 17 20  4  0
 18 23  1  0
 19 25  4  0
M  END
$$$$

 Created by Python create_sdf_string function

 25 28  0  0  0  0  0  0  0  0999 V2000
   13.1533   -5.2399   21.0682 C   0  0  0  0  0  0  0  0  0  0  0  0
   10.4729   -4.0295   17.6135 C   0  0  0  0  0  0  0  0  0  0  0  0
   10.4789   -4.3641   20.9564 C   0  0  0  0  0  0  0  0  0  0  0  0
    8.7421   -5.1412   16.3650 C   0  0  0  0  0  0  0  0  0  0  0  0
   11.4353   -2.9204   17.8044 C   0  0  0  0  0  0  0  0  0  0  0  0
   11.1529   -4.3028   22.1277 C   0  0  0  0  0  0  0  0  0  0  0  0
   11.1290   -4.8502   19.8052 C   0  0  0  0  0  0  0  0  0  0  0  0
   12.4329   -4.2159   24.4224 C   0  0  0  0  0  0  0  0  0  0  0  0
    3.4740   -9.0387   16.5022 C   0  0  0  0  0  0  0  0  0  0  0  0
    6.8384   -7.9290   17.5282 N   0  0  0  0  0  0  0  0  0  0  0  0
    9.4126   -5.9853   18.4899 C   0  0  0  0  0  0  0  0  0  0  0  0
    4.2064  -10.3242   18.3302 C   0  0  0  0  0  0  0  0  0  0  0  0
    9.6599   -4.1551   16.4796 N   0  0  0  0  0  0  0  0  0  0  0  0
    7.0644   -6.4612   15.7375 N   0  0  0  0  0  0  0  0  0  0  0  0
    5.3549   -9.6322   18.3190 C   0  0  0  0  0  0  0  0  0  0  0  0
   10.3704   -4.9638   18.6510 C   0  0  0  0  0  0  0  0  0  0  0  0
    5.5935   -8.6419   17.4234 C   0  0  0  0  0  0  0  0  0  0  0  0
   13.0726   -4.6648   23.3394 O   0  0  0  0  0  0  0  0  0  0  0  0
    8.5955   -6.0705   17.3996 C   0  0  0  0  0  0  0  0  0  0  0  0
    4.6223   -8.3832   16.5030 C   0  0  0  0  0  0  0  0  0  0  0  0
   12.4690   -5.2624   19.9024 C   0  0  0  0  0  0  0  0  0  0  0  0
    3.2548   -9.9919   17.4189 C   0  0  0  0  0  0  0  0  0  0  0  0
   12.4767   -4.7393   22.1790 C   0  0  0  0  0  0  0  0  0  0  0  0
    7.8593   -5.3772   15.3569 N   0  0  0  0  0  0  0  0  0  0  0  0
    7.4412   -6.9038   16.9283 C   0  0  0  0  0  0  0  0  0  0  0  0
  1 21  4  0
  1 23  4  0
  2  5  1  0
  2 13  4  0
  2 16  4  0
  3  6  4  0
  3  7  4  0
  4 13  4  0
  4 19  4  0
  4 24  4  0
  6 23  4  0
  7 16  1  0
  7 21  4  0
  8 18  1  0
  9 20  4  0
  9 22  4  0
 10 17  1  0
 10 25  1  0
 11 16  4  0
 11 19  4  0
 12 15  4  0
 12 22  4  0
 14 24  4  0
 14 25  4  0
 15 17  4  0
 17 20  4  0
 18 23  1  0
 19 25  4  0
M  END
$$$$

 Created by Python create_sdf_string function

 25 28  0  0  0  0  0  0  0  0999 V2000
   13.1533   -5.2399   21.0682 C   0  0  0  0  0  0  0  0  0  0  0  0
   10.4729   -4.0295   17.6135 C   0  0  0  0  0  0  0  0  0  0  0  0
   10.4789   -4.3641   20.9564 C   0  0  0  0  0  0  0  0  0  0  0  0
    8.7421   -5.1412   16.3650 C   0  0  0  0  0  0  0  0  0  0  0  0
   11.4353   -2.9204   17.8044 C   0  0  0  0  0  0  0  0  0  0  0  0
   11.1529   -4.3028   22.1277 C   0  0  0  0  0  0  0  0  0  0  0  0
   11.1290   -4.8502   19.8052 C   0  0  0  0  0  0  0  0  0  0  0  0
   12.4329   -4.2159   24.4224 C   0  0  0  0  0  0  0  0  0  0  0  0
    3.4740   -9.0387   16.5022 C   0  0  0  0  0  0  0  0  0  0  0  0
    6.8384   -7.9290   17.5282 N   0  0  0  0  0  0  0  0  0  0  0  0
    9.4126   -5.9853   18.4899 C   0  0  0  0  0  0  0  0  0  0  0  0
    4.2064  -10.3242   18.3302 C   0  0  0  0  0  0  0  0  0  0  0  0
    9.6599   -4.1551   16.4796 N   0  0  0  0  0  0  0  0  0  0  0  0
    7.0644   -6.4612   15.7375 N   0  0  0  0  0  0  0  0  0  0  0  0
    5.3549   -9.6322   18.3190 C   0  0  0  0  0  0  0  0  0  0  0  0
   10.3704   -4.9638   18.6510 C   0  0  0  0  0  0  0  0  0  0  0  0
    5.5935   -8.6419   17.4234 C   0  0  0  0  0  0  0  0  0  0  0  0
   13.0726   -4.6648   23.3394 O   0  0  0  0  0  0  0  0  0  0  0  0
    8.5955   -6.0705   17.3996 C   0  0  0  0  0  0  0  0  0  0  0  0
    4.6223   -8.3832   16.5030 C   0  0  0  0  0  0  0  0  0  0  0  0
   12.4690   -5.2624   19.9024 C   0  0  0  0  0  0  0  0  0  0  0  0
    3.2548   -9.9919   17.4189 C   0  0  0  0  0  0  0  0  0  0  0  0
   12.4767   -4.7393   22.1790 C   0  0  0  0  0  0  0  0  0  0  0  0
    7.8593   -5.3772   15.3569 N   0  0  0  0  0  0  0  0  0  0  0  0
    7.4412   -6.9038   16.9283 C   0  0  0  0  0  0  0  0  0  0  0  0
  1 21  4  0
  1 23  4  0
  2  5  1  0
  2 13  4  0
  2 16  4  0
  3  6  4  0
  3  7  4  0
  4 13  4  0
  4 19  4  0
  4 24  4  0
  6 23  4  0
  7 16  1  0
  7 21  4  0
  8 18  1  0
  9 20  4  0
  9 22  4  0
 10 17  1  0
 10 25  1  0
 11 16  4  0
 11 19  4  0
 12 15  4  0
 12 22  4  0
 14 24  4  0
 14 25  4  0
 15 17  4  0
 17 20  4  0
 18 23  1  0
 19 25  4  0
M  END
$$$$

 Created by Python create_sdf_string function

 25 28  0  0  0  0  0  0  0  0999 V2000
   13.1533   -5.2399   21.0682 C   0  0  0  0  0  0  0  0  0  0  0  0
   10.4729   -4.0295   17.6135 C   0  0  0  0  0  0  0  0  0  0  0  0
   10.4789   -4.3641   20.9564 C   0  0  0  0  0  0  0  0  0  0  0  0
    8.7421   -5.1412   16.3650 C   0  0  0  0  0  0  0  0  0  0  0  0
   11.4353   -2.9204   17.8044 C   0  0  0  0  0  0  0  0  0  0  0  0
   11.1529   -4.3028   22.1277 C   0  0  0  0  0  0  0  0  0  0  0  0
   11.1290   -4.8502   19.8052 C   0  0  0  0  0  0  0  0  0  0  0  0
   12.4329   -4.2159   24.4224 C   0  0  0  0  0  0  0  0  0  0  0  0
    3.4740   -9.0387   16.5022 C   0  0  0  0  0  0  0  0  0  0  0  0
    6.8384   -7.9290   17.5282 N   0  0  0  0  0  0  0  0  0  0  0  0
    9.4126   -5.9853   18.4899 C   0  0  0  0  0  0  0  0  0  0  0  0
    4.2064  -10.3242   18.3302 C   0  0  0  0  0  0  0  0  0  0  0  0
    9.6599   -4.1551   16.4796 N   0  0  0  0  0  0  0  0  0  0  0  0
    7.0644   -6.4612   15.7375 N   0  0  0  0  0  0  0  0  0  0  0  0
    5.3549   -9.6322   18.3190 C   0  0  0  0  0  0  0  0  0  0  0  0
   10.3704   -4.9638   18.6510 C   0  0  0  0  0  0  0  0  0  0  0  0
    5.5935   -8.6419   17.4234 C   0  0  0  0  0  0  0  0  0  0  0  0
   13.0726   -4.6648   23.3394 O   0  0  0  0  0  0  0  0  0  0  0  0
    8.5955   -6.0705   17.3996 C   0  0  0  0  0  0  0  0  0  0  0  0
    4.6223   -8.3832   16.5030 C   0  0  0  0  0  0  0  0  0  0  0  0
   12.4690   -5.2624   19.9024 C   0  0  0  0  0  0  0  0  0  0  0  0
    3.2548   -9.9919   17.4189 C   0  0  0  0  0  0  0  0  0  0  0  0
   12.4767   -4.7393   22.1790 C   0  0  0  0  0  0  0  0  0  0  0  0
    7.8593   -5.3772   15.3569 N   0  0  0  0  0  0  0  0  0  0  0  0
    7.4412   -6.9038   16.9283 C   0  0  0  0  0  0  0  0  0  0  0  0
  1 21  4  0
  1 23  4  0
  2  5  1  0
  2 13  4  0
  2 16  4  0
  3  6  4  0
  3  7  4  0
  4 13  4  0
  4 19  4  0
  4 24  4  0
  6 23  4  0
  7 16  1  0
  7 21  4  0
  8 18  1  0
  9 20  4  0
  9 22  4  0
 10 17  1  0
 10 25  1  0
 11 16  4  0
 11 19  4  0
 12 15  4  0
 12 22  4  0
 14 24  4  0
 14 25  4  0
 15 17  4  0
 17 20  4  0
 18 23  1  0
 19 25  4  0
M  END
$$$$

 Created by Python create_sdf_string function

 25 28  0  0  0  0  0  0  0  0999 V2000
   13.1533   -5.2399   21.0682 C   0  0  0  0  0  0  0  0  0  0  0  0
   10.4729   -4.0295   17.6135 C   0  0  0  0  0  0  0  0  0  0  0  0
   10.4789   -4.3641   20.9564 C   0  0  0  0  0  0  0  0  0  0  0  0
    8.7421   -5.1412   16.3650 C   0  0  0  0  0  0  0  0  0  0  0  0
   11.4353   -2.9204   17.8044 C   0  0  0  0  0  0  0  0  0  0  0  0
   11.1529   -4.3028   22.1277 C   0  0  0  0  0  0  0  0  0  0  0  0
   11.1290   -4.8502   19.8052 C   0  0  0  0  0  0  0  0  0  0  0  0
   12.4329   -4.2159   24.4224 C   0  0  0  0  0  0  0  0  0  0  0  0
    3.4740   -9.0387   16.5022 C   0  0  0  0  0  0  0  0  0  0  0  0
    6.8384   -7.9290   17.5282 N   0  0  0  0  0  0  0  0  0  0  0  0
    9.4126   -5.9853   18.4899 C   0  0  0  0  0  0  0  0  0  0  0  0
    4.2064  -10.3242   18.3302 C   0  0  0  0  0  0  0  0  0  0  0  0
    9.6599   -4.1551   16.4796 N   0  0  0  0  0  0  0  0  0  0  0  0
    7.0644   -6.4612   15.7375 N   0  0  0  0  0  0  0  0  0  0  0  0
    5.3549   -9.6322   18.3190 C   0  0  0  0  0  0  0  0  0  0  0  0
   10.3704   -4.9638   18.6510 C   0  0  0  0  0  0  0  0  0  0  0  0
    5.5935   -8.6419   17.4234 C   0  0  0  0  0  0  0  0  0  0  0  0
   13.0726   -4.6648   23.3394 O   0  0  0  0  0  0  0  0  0  0  0  0
    8.5955   -6.0705   17.3996 C   0  0  0  0  0  0  0  0  0  0  0  0
    4.6223   -8.3832   16.5030 C   0  0  0  0  0  0  0  0  0  0  0  0
   12.4690   -5.2624   19.9024 C   0  0  0  0  0  0  0  0  0  0  0  0
    3.2548   -9.9919   17.4189 C   0  0  0  0  0  0  0  0  0  0  0  0
   12.4767   -4.7393   22.1790 C   0  0  0  0  0  0  0  0  0  0  0  0
    7.8593   -5.3772   15.3569 N   0  0  0  0  0  0  0  0  0  0  0  0
    7.4412   -6.9038   16.9283 C   0  0  0  0  0  0  0  0  0  0  0  0
  1 21  4  0
  1 23  4  0
  2  5  1  0
  2 13  4  0
  2 16  4  0
  3  6  4  0
  3  7  4  0
  4 13  4  0
  4 19  4  0
  4 24  4  0
  6 23  4  0
  7 16  1  0
  7 21  4  0
  8 18  1  0
  9 20  4  0
  9 22  4  0
 10 17  1  0
 10 25  1  0
 11 16  4  0
 11 19  4  0
 12 15  4  0
 12 22  4  0
 14 24  4  0
 14 25  4  0
 15 17  4  0
 17 20  4  0
 18 23  1  0
 19 25  4  0
M  END
$$$$

 Created by Python create_sdf_string function

 25 28  0  0  0  0  0  0  0  0999 V2000
   13.1533   -5.2399   21.0682 C   0  0  0  0  0  0  0  0  0  0  0  0
   10.4729   -4.0295   17.6135 C   0  0  0  0  0  0  0  0  0  0  0  0
   10.4789   -4.3641   20.9564 C   0  0  0  0  0  0  0  0  0  0  0  0
    8.7421   -5.1412   16.3650 C   0  0  0  0  0  0  0  0  0  0  0  0
   11.4353   -2.9204   17.8044 C   0  0  0  0  0  0  0  0  0  0  0  0
   11.1529   -4.3028   22.1277 C   0  0  0  0  0  0  0  0  0  0  0  0
   11.1290   -4.8502   19.8052 C   0  0  0  0  0  0  0  0  0  0  0  0
   12.4329   -4.2159   24.4224 C   0  0  0  0  0  0  0  0  0  0  0  0
    3.4740   -9.0387   16.5022 C   0  0  0  0  0  0  0  0  0  0  0  0
    6.8384   -7.9290   17.5282 N   0  0  0  0  0  0  0  0  0  0  0  0
    9.4126   -5.9853   18.4899 C   0  0  0  0  0  0  0  0  0  0  0  0
    4.2064  -10.3242   18.3302 C   0  0  0  0  0  0  0  0  0  0  0  0
    9.6599   -4.1551   16.4796 N   0  0  0  0  0  0  0  0  0  0  0  0
    7.0644   -6.4612   15.7375 N   0  0  0  0  0  0  0  0  0  0  0  0
    5.3549   -9.6322   18.3190 C   0  0  0  0  0  0  0  0  0  0  0  0
   10.3704   -4.9638   18.6510 C   0  0  0  0  0  0  0  0  0  0  0  0
    5.5935   -8.6419   17.4234 C   0  0  0  0  0  0  0  0  0  0  0  0
   13.0726   -4.6648   23.3394 O   0  0  0  0  0  0  0  0  0  0  0  0
    8.5955   -6.0705   17.3996 C   0  0  0  0  0  0  0  0  0  0  0  0
    4.6223   -8.3832   16.5030 C   0  0  0  0  0  0  0  0  0  0  0  0
   12.4690   -5.2624   19.9024 C   0  0  0  0  0  0  0  0  0  0  0  0
    3.2548   -9.9919   17.4189 C   0  0  0  0  0  0  0  0  0  0  0  0
   12.4767   -4.7393   22.1790 C   0  0  0  0  0  0  0  0  0  0  0  0
    7.8593   -5.3772   15.3569 N   0  0  0  0  0  0  0  0  0  0  0  0
    7.4412   -6.9038   16.9283 C   0  0  0  0  0  0  0  0  0  0  0  0
  1 21  4  0
  1 23  4  0
  2  5  1  0
  2 13  4  0
  2 16  4  0
  3  6  4  0
  3  7  4  0
  4 13  4  0
  4 19  4  0
  4 24  4  0
  6 23  4  0
  7 16  1  0
  7 21  4  0
  8 18  1  0
  9 20  4  0
  9 22  4  0
 10 17  1  0
 10 25  1  0
 11 16  4  0
 11 19  4  0
 12 15  4  0
 12 22  4  0
 14 24  4  0
 14 25  4  0
 15 17  4  0
 17 20  4  0
 18 23  1  0
 19 25  4  0
M  END
$$$$

 Created by Python create_sdf_string function

 25 28  0  0  0  0  0  0  0  0999 V2000
   13.1533   -5.2399   21.0682 C   0  0  0  0  0  0  0  0  0  0  0  0
   10.4729   -4.0295   17.6135 C   0  0  0  0  0  0  0  0  0  0  0  0
   10.4789   -4.3641   20.9564 C   0  0  0  0  0  0  0  0  0  0  0  0
    8.7421   -5.1412   16.3650 C   0  0  0  0  0  0  0  0  0  0  0  0
   11.4353   -2.9204   17.8044 C   0  0  0  0  0  0  0  0  0  0  0  0
   11.1529   -4.3028   22.1277 C   0  0  0  0  0  0  0  0  0  0  0  0
   11.1290   -4.8502   19.8052 C   0  0  0  0  0  0  0  0  0  0  0  0
   12.4329   -4.2159   24.4224 C   0  0  0  0  0  0  0  0  0  0  0  0
    3.4740   -9.0387   16.5022 C   0  0  0  0  0  0  0  0  0  0  0  0
    6.8384   -7.9290   17.5282 N   0  0  0  0  0  0  0  0  0  0  0  0
    9.4126   -5.9853   18.4899 C   0  0  0  0  0  0  0  0  0  0  0  0
    4.2064  -10.3242   18.3302 C   0  0  0  0  0  0  0  0  0  0  0  0
    9.6599   -4.1551   16.4796 N   0  0  0  0  0  0  0  0  0  0  0  0
    7.0644   -6.4612   15.7375 N   0  0  0  0  0  0  0  0  0  0  0  0
    5.3549   -9.6322   18.3190 C   0  0  0  0  0  0  0  0  0  0  0  0
   10.3704   -4.9638   18.6510 C   0  0  0  0  0  0  0  0  0  0  0  0
    5.5935   -8.6419   17.4234 C   0  0  0  0  0  0  0  0  0  0  0  0
   13.0726   -4.6648   23.3394 O   0  0  0  0  0  0  0  0  0  0  0  0
    8.5955   -6.0705   17.3996 C   0  0  0  0  0  0  0  0  0  0  0  0
    4.6223   -8.3832   16.5030 C   0  0  0  0  0  0  0  0  0  0  0  0
   12.4690   -5.2624   19.9024 C   0  0  0  0  0  0  0  0  0  0  0  0
    3.2548   -9.9919   17.4189 C   0  0  0  0  0  0  0  0  0  0  0  0
   12.4767   -4.7393   22.1790 C   0  0  0  0  0  0  0  0  0  0  0  0
    7.8593   -5.3772   15.3569 N   0  0  0  0  0  0  0  0  0  0  0  0
    7.4412   -6.9038   16.9283 C   0  0  0  0  0  0  0  0  0  0  0  0
  1 21  4  0
  1 23  4  0
  2  5  1  0
  2 13  4  0
  2 16  4  0
  3  6  4  0
  3  7  4  0
  4 13  4  0
  4 19  4  0
  4 24  4  0
  6 23  4  0
  7 16  1  0
  7 21  4  0
  8 18  1  0
  9 20  4  0
  9 22  4  0
 10 17  1  0
 10 25  1  0
 11 16  4  0
 11 19  4  0
 12 15  4  0
 12 22  4  0
 14 24  4  0
 14 25  4  0
 15 17  4  0
 17 20  4  0
 18 23  1  0
 19 25  4  0
M  END
$$$$

 Created by Python create_sdf_string function

 25 28  0  0  0  0  0  0  0  0999 V2000
   13.1533   -5.2399   21.0682 C   0  0  0  0  0  0  0  0  0  0  0  0
   10.4729   -4.0295   17.6135 C   0  0  0  0  0  0  0  0  0  0  0  0
   10.4789   -4.3641   20.9564 C   0  0  0  0  0  0  0  0  0  0  0  0
    8.7421   -5.1412   16.3650 C   0  0  0  0  0  0  0  0  0  0  0  0
   11.4353   -2.9204   17.8044 C   0  0  0  0  0  0  0  0  0  0  0  0
   11.1529   -4.3028   22.1277 C   0  0  0  0  0  0  0  0  0  0  0  0
   11.1290   -4.8502   19.8052 C   0  0  0  0  0  0  0  0  0  0  0  0
   12.4329   -4.2159   24.4224 C   0  0  0  0  0  0  0  0  0  0  0  0
    3.4740   -9.0387   16.5022 C   0  0  0  0  0  0  0  0  0  0  0  0
    6.8384   -7.9290   17.5282 N   0  0  0  0  0  0  0  0  0  0  0  0
    9.4126   -5.9853   18.4899 C   0  0  0  0  0  0  0  0  0  0  0  0
    4.2064  -10.3242   18.3302 C   0  0  0  0  0  0  0  0  0  0  0  0
    9.6599   -4.1551   16.4796 N   0  0  0  0  0  0  0  0  0  0  0  0
    7.0644   -6.4612   15.7375 N   0  0  0  0  0  0  0  0  0  0  0  0
    5.3549   -9.6322   18.3190 C   0  0  0  0  0  0  0  0  0  0  0  0
   10.3704   -4.9638   18.6510 C   0  0  0  0  0  0  0  0  0  0  0  0
    5.5935   -8.6419   17.4234 C   0  0  0  0  0  0  0  0  0  0  0  0
   13.0726   -4.6648   23.3394 O   0  0  0  0  0  0  0  0  0  0  0  0
    8.5955   -6.0705   17.3996 C   0  0  0  0  0  0  0  0  0  0  0  0
    4.6223   -8.3832   16.5030 C   0  0  0  0  0  0  0  0  0  0  0  0
   12.4690   -5.2624   19.9024 C   0  0  0  0  0  0  0  0  0  0  0  0
    3.2548   -9.9919   17.4189 C   0  0  0  0  0  0  0  0  0  0  0  0
   12.4767   -4.7393   22.1790 C   0  0  0  0  0  0  0  0  0  0  0  0
    7.8593   -5.3772   15.3569 N   0  0  0  0  0  0  0  0  0  0  0  0
    7.4412   -6.9038   16.9283 C   0  0  0  0  0  0  0  0  0  0  0  0
  1 21  4  0
  1 23  4  0
  2  5  1  0
  2 13  4  0
  2 16  4  0
  3  6  4  0
  3  7  4  0
  4 13  4  0
  4 19  4  0
  4 24  4  0
  6 23  4  0
  7 16  1  0
  7 21  4  0
  8 18  1  0
  9 20  4  0
  9 22  4  0
 10 17  1  0
 10 25  1  0
 11 16  4  0
 11 19  4  0
 12 15  4  0
 12 22  4  0
 14 24  4  0
 14 25  4  0
 15 17  4  0
 17 20  4  0
 18 23  1  0
 19 25  4  0
M  END
$$$$

 Created by Python create_sdf_string function

 25 28  0  0  0  0  0  0  0  0999 V2000
   13.1533   -5.2399   21.0682 C   0  0  0  0  0  0  0  0  0  0  0  0
   10.4729   -4.0295   17.6135 C   0  0  0  0  0  0  0  0  0  0  0  0
   10.4789   -4.3641   20.9564 C   0  0  0  0  0  0  0  0  0  0  0  0
    8.7421   -5.1412   16.3650 C   0  0  0  0  0  0  0  0  0  0  0  0
   11.4353   -2.9204   17.8044 C   0  0  0  0  0  0  0  0  0  0  0  0
   11.1529   -4.3028   22.1277 C   0  0  0  0  0  0  0  0  0  0  0  0
   11.1290   -4.8502   19.8052 C   0  0  0  0  0  0  0  0  0  0  0  0
   12.4329   -4.2159   24.4224 C   0  0  0  0  0  0  0  0  0  0  0  0
    3.4740   -9.0387   16.5022 C   0  0  0  0  0  0  0  0  0  0  0  0
    6.8384   -7.9290   17.5282 N   0  0  0  0  0  0  0  0  0  0  0  0
    9.4126   -5.9853   18.4899 C   0  0  0  0  0  0  0  0  0  0  0  0
    4.2064  -10.3242   18.3302 C   0  0  0  0  0  0  0  0  0  0  0  0
    9.6599   -4.1551   16.4796 N   0  0  0  0  0  0  0  0  0  0  0  0
    7.0644   -6.4612   15.7375 N   0  0  0  0  0  0  0  0  0  0  0  0
    5.3549   -9.6322   18.3190 C   0  0  0  0  0  0  0  0  0  0  0  0
   10.3704   -4.9638   18.6510 C   0  0  0  0  0  0  0  0  0  0  0  0
    5.5935   -8.6419   17.4234 C   0  0  0  0  0  0  0  0  0  0  0  0
   13.0726   -4.6648   23.3394 O   0  0  0  0  0  0  0  0  0  0  0  0
    8.5955   -6.0705   17.3996 C   0  0  0  0  0  0  0  0  0  0  0  0
    4.6223   -8.3832   16.5030 C   0  0  0  0  0  0  0  0  0  0  0  0
   12.4690   -5.2624   19.9024 C   0  0  0  0  0  0  0  0  0  0  0  0
    3.2548   -9.9919   17.4189 C   0  0  0  0  0  0  0  0  0  0  0  0
   12.4767   -4.7393   22.1790 C   0  0  0  0  0  0  0  0  0  0  0  0
    7.8593   -5.3772   15.3569 N   0  0  0  0  0  0  0  0  0  0  0  0
    7.4412   -6.9038   16.9283 C   0  0  0  0  0  0  0  0  0  0  0  0
  1 21  4  0
  1 23  4  0
  2  5  1  0
  2 13  4  0
  2 16  4  0
  3  6  4  0
  3  7  4  0
  4 13  4  0
  4 19  4  0
  4 24  4  0
  6 23  4  0
  7 16  1  0
  7 21  4  0
  8 18  1  0
  9 20  4  0
  9 22  4  0
 10 17  1  0
 10 25  1  0
 11 16  4  0
 11 19  4  0
 12 15  4  0
 12 22  4  0
 14 24  4  0
 14 25  4  0
 15 17  4  0
 17 20  4  0
 18 23  1  0
 19 25  4  0
M  END
$$$$

 Created by Python create_sdf_string function

 25 28  0  0  0  0  0  0  0  0999 V2000
   13.1533   -5.2399   21.0682 C   0  0  0  0  0  0  0  0  0  0  0  0
   10.4729   -4.0295   17.6135 C   0  0  0  0  0  0  0  0  0  0  0  0
   10.4789   -4.3641   20.9564 C   0  0  0  0  0  0  0  0  0  0  0  0
    8.7421   -5.1412   16.3650 C   0  0  0  0  0  0  0  0  0  0  0  0
   11.4353   -2.9204   17.8044 C   0  0  0  0  0  0  0  0  0  0  0  0
   11.1529   -4.3028   22.1277 C   0  0  0  0  0  0  0  0  0  0  0  0
   11.1290   -4.8502   19.8052 C   0  0  0  0  0  0  0  0  0  0  0  0
   12.4329   -4.2159   24.4224 C   0  0  0  0  0  0  0  0  0  0  0  0
    3.4740   -9.0387   16.5022 C   0  0  0  0  0  0  0  0  0  0  0  0
    6.8384   -7.9290   17.5282 N   0  0  0  0  0  0  0  0  0  0  0  0
    9.4126   -5.9853   18.4899 C   0  0  0  0  0  0  0  0  0  0  0  0
    4.2064  -10.3242   18.3302 C   0  0  0  0  0  0  0  0  0  0  0  0
    9.6599   -4.1551   16.4796 N   0  0  0  0  0  0  0  0  0  0  0  0
    7.0644   -6.4612   15.7375 N   0  0  0  0  0  0  0  0  0  0  0  0
    5.3549   -9.6322   18.3190 C   0  0  0  0  0  0  0  0  0  0  0  0
   10.3704   -4.9638   18.6510 C   0  0  0  0  0  0  0  0  0  0  0  0
    5.5935   -8.6419   17.4234 C   0  0  0  0  0  0  0  0  0  0  0  0
   13.0726   -4.6648   23.3394 O   0  0  0  0  0  0  0  0  0  0  0  0
    8.5955   -6.0705   17.3996 C   0  0  0  0  0  0  0  0  0  0  0  0
    4.6223   -8.3832   16.5030 C   0  0  0  0  0  0  0  0  0  0  0  0
   12.4690   -5.2624   19.9024 C   0  0  0  0  0  0  0  0  0  0  0  0
    3.2548   -9.9919   17.4189 C   0  0  0  0  0  0  0  0  0  0  0  0
   12.4767   -4.7393   22.1790 C   0  0  0  0  0  0  0  0  0  0  0  0
    7.8593   -5.3772   15.3569 N   0  0  0  0  0  0  0  0  0  0  0  0
    7.4412   -6.9038   16.9283 C   0  0  0  0  0  0  0  0  0  0  0  0
  1 21  4  0
  1 23  4  0
  2  5  1  0
  2 13  4  0
  2 16  4  0
  3  6  4  0
  3  7  4  0
  4 13  4  0
  4 19  4  0
  4 24  4  0
  6 23  4  0
  7 16  1  0
  7 21  4  0
  8 18  1  0
  9 20  4  0
  9 22  4  0
 10 17  1  0
 10 25  1  0
 11 16  4  0
 11 19  4  0
 12 15  4  0
 12 22  4  0
 14 24  4  0
 14 25  4  0
 15 17  4  0
 17 20  4  0
 18 23  1  0
 19 25  4  0
M  END
$$$$

 Created by Python create_sdf_string function

 25 28  0  0  0  0  0  0  0  0999 V2000
   13.1533   -5.2399   21.0682 C   0  0  0  0  0  0  0  0  0  0  0  0
   10.4729   -4.0295   17.6135 C   0  0  0  0  0  0  0  0  0  0  0  0
   10.4789   -4.3641   20.9564 C   0  0  0  0  0  0  0  0  0  0  0  0
    8.7421   -5.1412   16.3650 C   0  0  0  0  0  0  0  0  0  0  0  0
   11.4353   -2.9204   17.8044 C   0  0  0  0  0  0  0  0  0  0  0  0
   11.1529   -4.3028   22.1277 C   0  0  0  0  0  0  0  0  0  0  0  0
   11.1290   -4.8502   19.8052 C   0  0  0  0  0  0  0  0  0  0  0  0
   12.4329   -4.2159   24.4224 C   0  0  0  0  0  0  0  0  0  0  0  0
    3.4740   -9.0387   16.5022 C   0  0  0  0  0  0  0  0  0  0  0  0
    6.8384   -7.9290   17.5282 N   0  0  0  0  0  0  0  0  0  0  0  0
    9.4126   -5.9853   18.4899 C   0  0  0  0  0  0  0  0  0  0  0  0
    4.2064  -10.3242   18.3302 C   0  0  0  0  0  0  0  0  0  0  0  0
    9.6599   -4.1551   16.4796 N   0  0  0  0  0  0  0  0  0  0  0  0
    7.0644   -6.4612   15.7375 N   0  0  0  0  0  0  0  0  0  0  0  0
    5.3549   -9.6322   18.3190 C   0  0  0  0  0  0  0  0  0  0  0  0
   10.3704   -4.9638   18.6510 C   0  0  0  0  0  0  0  0  0  0  0  0
    5.5935   -8.6419   17.4234 C   0  0  0  0  0  0  0  0  0  0  0  0
   13.0726   -4.6648   23.3394 O   0  0  0  0  0  0  0  0  0  0  0  0
    8.5955   -6.0705   17.3996 C   0  0  0  0  0  0  0  0  0  0  0  0
    4.6223   -8.3832   16.5030 C   0  0  0  0  0  0  0  0  0  0  0  0
   12.4690   -5.2624   19.9024 C   0  0  0  0  0  0  0  0  0  0  0  0
    3.2548   -9.9919   17.4189 C   0  0  0  0  0  0  0  0  0  0  0  0
   12.4767   -4.7393   22.1790 C   0  0  0  0  0  0  0  0  0  0  0  0
    7.8593   -5.3772   15.3569 N   0  0  0  0  0  0  0  0  0  0  0  0
    7.4412   -6.9038   16.9283 C   0  0  0  0  0  0  0  0  0  0  0  0
  1 21  4  0
  1 23  4  0
  2  5  1  0
  2 13  4  0
  2 16  4  0
  3  6  4  0
  3  7  4  0
  4 13  4  0
  4 19  4  0
  4 24  4  0
  6 23  4  0
  7 16  1  0
  7 21  4  0
  8 18  1  0
  9 20  4  0
  9 22  4  0
 10 17  1  0
 10 25  1  0
 11 16  4  0
 11 19  4  0
 12 15  4  0
 12 22  4  0
 14 24  4  0
 14 25  4  0
 15 17  4  0
 17 20  4  0
 18 23  1  0
 19 25  4  0
M  END
$$$$

 Created by Python create_sdf_string function

 25 28  0  0  0  0  0  0  0  0999 V2000
   13.1533   -5.2399   21.0682 C   0  0  0  0  0  0  0  0  0  0  0  0
   10.4729   -4.0295   17.6135 C   0  0  0  0  0  0  0  0  0  0  0  0
   10.4789   -4.3641   20.9564 C   0  0  0  0  0  0  0  0  0  0  0  0
    8.7421   -5.1412   16.3650 C   0  0  0  0  0  0  0  0  0  0  0  0
   11.4353   -2.9204   17.8044 C   0  0  0  0  0  0  0  0  0  0  0  0
   11.1529   -4.3028   22.1277 C   0  0  0  0  0  0  0  0  0  0  0  0
   11.1290   -4.8502   19.8052 C   0  0  0  0  0  0  0  0  0  0  0  0
   12.4329   -4.2159   24.4224 C   0  0  0  0  0  0  0  0  0  0  0  0
    3.4740   -9.0387   16.5022 C   0  0  0  0  0  0  0  0  0  0  0  0
    6.8384   -7.9290   17.5282 N   0  0  0  0  0  0  0  0  0  0  0  0
    9.4126   -5.9853   18.4899 C   0  0  0  0  0  0  0  0  0  0  0  0
    4.2064  -10.3242   18.3302 C   0  0  0  0  0  0  0  0  0  0  0  0
    9.6599   -4.1551   16.4796 N   0  0  0  0  0  0  0  0  0  0  0  0
    7.0644   -6.4612   15.7375 N   0  0  0  0  0  0  0  0  0  0  0  0
    5.3549   -9.6322   18.3190 C   0  0  0  0  0  0  0  0  0  0  0  0
   10.3704   -4.9638   18.6510 C   0  0  0  0  0  0  0  0  0  0  0  0
    5.5935   -8.6419   17.4234 C   0  0  0  0  0  0  0  0  0  0  0  0
   13.0726   -4.6648   23.3394 O   0  0  0  0  0  0  0  0  0  0  0  0
    8.5955   -6.0705   17.3996 C   0  0  0  0  0  0  0  0  0  0  0  0
    4.6223   -8.3832   16.5030 C   0  0  0  0  0  0  0  0  0  0  0  0
   12.4690   -5.2624   19.9024 C   0  0  0  0  0  0  0  0  0  0  0  0
    3.2548   -9.9919   17.4189 C   0  0  0  0  0  0  0  0  0  0  0  0
   12.4767   -4.7393   22.1790 C   0  0  0  0  0  0  0  0  0  0  0  0
    7.8593   -5.3772   15.3569 N   0  0  0  0  0  0  0  0  0  0  0  0
    7.4412   -6.9038   16.9283 C   0  0  0  0  0  0  0  0  0  0  0  0
  1 21  4  0
  1 23  4  0
  2  5  1  0
  2 13  4  0
  2 16  4  0
  3  6  4  0
  3  7  4  0
  4 13  4  0
  4 19  4  0
  4 24  4  0
  6 23  4  0
  7 16  1  0
  7 21  4  0
  8 18  1  0
  9 20  4  0
  9 22  4  0
 10 17  1  0
 10 25  1  0
 11 16  4  0
 11 19  4  0
 12 15  4  0
 12 22  4  0
 14 24  4  0
 14 25  4  0
 15 17  4  0
 17 20  4  0
 18 23  1  0
 19 25  4  0
M  END
$$$$

 Created by Python create_sdf_string function

 25 28  0  0  0  0  0  0  0  0999 V2000
   13.1533   -5.2399   21.0682 C   0  0  0  0  0  0  0  0  0  0  0  0
   10.4729   -4.0295   17.6135 C   0  0  0  0  0  0  0  0  0  0  0  0
   10.4789   -4.3641   20.9564 C   0  0  0  0  0  0  0  0  0  0  0  0
    8.7421   -5.1412   16.3650 C   0  0  0  0  0  0  0  0  0  0  0  0
   11.4353   -2.9204   17.8044 C   0  0  0  0  0  0  0  0  0  0  0  0
   11.1529   -4.3028   22.1277 C   0  0  0  0  0  0  0  0  0  0  0  0
   11.1290   -4.8502   19.8052 C   0  0  0  0  0  0  0  0  0  0  0  0
   12.4329   -4.2159   24.4224 C   0  0  0  0  0  0  0  0  0  0  0  0
    3.4740   -9.0387   16.5022 C   0  0  0  0  0  0  0  0  0  0  0  0
    6.8384   -7.9290   17.5282 N   0  0  0  0  0  0  0  0  0  0  0  0
    9.4126   -5.9853   18.4899 C   0  0  0  0  0  0  0  0  0  0  0  0
    4.2064  -10.3242   18.3302 C   0  0  0  0  0  0  0  0  0  0  0  0
    9.6599   -4.1551   16.4796 N   0  0  0  0  0  0  0  0  0  0  0  0
    7.0644   -6.4612   15.7375 N   0  0  0  0  0  0  0  0  0  0  0  0
    5.3549   -9.6322   18.3190 C   0  0  0  0  0  0  0  0  0  0  0  0
   10.3704   -4.9638   18.6510 C   0  0  0  0  0  0  0  0  0  0  0  0
    5.5935   -8.6419   17.4234 C   0  0  0  0  0  0  0  0  0  0  0  0
   13.0726   -4.6648   23.3394 O   0  0  0  0  0  0  0  0  0  0  0  0
    8.5955   -6.0705   17.3996 C   0  0  0  0  0  0  0  0  0  0  0  0
    4.6223   -8.3832   16.5030 C   0  0  0  0  0  0  0  0  0  0  0  0
   12.4690   -5.2624   19.9024 C   0  0  0  0  0  0  0  0  0  0  0  0
    3.2548   -9.9919   17.4189 C   0  0  0  0  0  0  0  0  0  0  0  0
   12.4767   -4.7393   22.1790 C   0  0  0  0  0  0  0  0  0  0  0  0
    7.8593   -5.3772   15.3569 N   0  0  0  0  0  0  0  0  0  0  0  0
    7.4412   -6.9038   16.9283 C   0  0  0  0  0  0  0  0  0  0  0  0
  1 21  4  0
  1 23  4  0
  2  5  1  0
  2 13  4  0
  2 16  4  0
  3  6  4  0
  3  7  4  0
  4 13  4  0
  4 19  4  0
  4 24  4  0
  6 23  4  0
  7 16  1  0
  7 21  4  0
  8 18  1  0
  9 20  4  0
  9 22  4  0
 10 17  1  0
 10 25  1  0
 11 16  4  0
 11 19  4  0
 12 15  4  0
 12 22  4  0
 14 24  4  0
 14 25  4  0
 15 17  4  0
 17 20  4  0
 18 23  1  0
 19 25  4  0
M  END
$$$$

 Created by Python create_sdf_string function

 25 28  0  0  0  0  0  0  0  0999 V2000
   13.1533   -5.2399   21.0682 C   0  0  0  0  0  0  0  0  0  0  0  0
   10.4729   -4.0295   17.6135 C   0  0  0  0  0  0  0  0  0  0  0  0
   10.4789   -4.3641   20.9564 C   0  0  0  0  0  0  0  0  0  0  0  0
    8.7421   -5.1412   16.3650 C   0  0  0  0  0  0  0  0  0  0  0  0
   11.4353   -2.9204   17.8044 C   0  0  0  0  0  0  0  0  0  0  0  0
   11.1529   -4.3028   22.1277 C   0  0  0  0  0  0  0  0  0  0  0  0
   11.1290   -4.8502   19.8052 C   0  0  0  0  0  0  0  0  0  0  0  0
   12.4329   -4.2159   24.4224 C   0  0  0  0  0  0  0  0  0  0  0  0
    3.4740   -9.0387   16.5022 C   0  0  0  0  0  0  0  0  0  0  0  0
    6.8384   -7.9290   17.5282 N   0  0  0  0  0  0  0  0  0  0  0  0
    9.4126   -5.9853   18.4899 C   0  0  0  0  0  0  0  0  0  0  0  0
    4.2064  -10.3242   18.3302 C   0  0  0  0  0  0  0  0  0  0  0  0
    9.6599   -4.1551   16.4796 N   0  0  0  0  0  0  0  0  0  0  0  0
    7.0644   -6.4612   15.7375 N   0  0  0  0  0  0  0  0  0  0  0  0
    5.3549   -9.6322   18.3190 C   0  0  0  0  0  0  0  0  0  0  0  0
   10.3704   -4.9638   18.6510 C   0  0  0  0  0  0  0  0  0  0  0  0
    5.5935   -8.6419   17.4234 C   0  0  0  0  0  0  0  0  0  0  0  0
   13.0726   -4.6648   23.3394 O   0  0  0  0  0  0  0  0  0  0  0  0
    8.5955   -6.0705   17.3996 C   0  0  0  0  0  0  0  0  0  0  0  0
    4.6223   -8.3832   16.5030 C   0  0  0  0  0  0  0  0  0  0  0  0
   12.4690   -5.2624   19.9024 C   0  0  0  0  0  0  0  0  0  0  0  0
    3.2548   -9.9919   17.4189 C   0  0  0  0  0  0  0  0  0  0  0  0
   12.4767   -4.7393   22.1790 C   0  0  0  0  0  0  0  0  0  0  0  0
    7.8593   -5.3772   15.3569 N   0  0  0  0  0  0  0  0  0  0  0  0
    7.4412   -6.9038   16.9283 C   0  0  0  0  0  0  0  0  0  0  0  0
  1 21  4  0
  1 23  4  0
  2  5  1  0
  2 13  4  0
  2 16  4  0
  3  6  4  0
  3  7  4  0
  4 13  4  0
  4 19  4  0
  4 24  4  0
  6 23  4  0
  7 16  1  0
  7 21  4  0
  8 18  1  0
  9 20  4  0
  9 22  4  0
 10 17  1  0
 10 25  1  0
 11 16  4  0
 11 19  4  0
 12 15  4  0
 12 22  4  0
 14 24  4  0
 14 25  4  0
 15 17  4  0
 17 20  4  0
 18 23  1  0
 19 25  4  0
M  END
$$$$

 Created by Python create_sdf_string function

 25 28  0  0  0  0  0  0  0  0999 V2000
   13.1533   -5.2399   21.0682 C   0  0  0  0  0  0  0  0  0  0  0  0
   10.4729   -4.0295   17.6135 C   0  0  0  0  0  0  0  0  0  0  0  0
   10.4789   -4.3641   20.9564 C   0  0  0  0  0  0  0  0  0  0  0  0
    8.7421   -5.1412   16.3650 C   0  0  0  0  0  0  0  0  0  0  0  0
   11.4353   -2.9204   17.8044 C   0  0  0  0  0  0  0  0  0  0  0  0
   11.1529   -4.3028   22.1277 C   0  0  0  0  0  0  0  0  0  0  0  0
   11.1290   -4.8502   19.8052 C   0  0  0  0  0  0  0  0  0  0  0  0
   12.4329   -4.2159   24.4224 C   0  0  0  0  0  0  0  0  0  0  0  0
    3.4740   -9.0387   16.5022 C   0  0  0  0  0  0  0  0  0  0  0  0
    6.8384   -7.9290   17.5282 N   0  0  0  0  0  0  0  0  0  0  0  0
    9.4126   -5.9853   18.4899 C   0  0  0  0  0  0  0  0  0  0  0  0
    4.2064  -10.3242   18.3302 C   0  0  0  0  0  0  0  0  0  0  0  0
    9.6599   -4.1551   16.4796 N   0  0  0  0  0  0  0  0  0  0  0  0
    7.0644   -6.4612   15.7375 N   0  0  0  0  0  0  0  0  0  0  0  0
    5.3549   -9.6322   18.3190 C   0  0  0  0  0  0  0  0  0  0  0  0
   10.3704   -4.9638   18.6510 C   0  0  0  0  0  0  0  0  0  0  0  0
    5.5935   -8.6419   17.4234 C   0  0  0  0  0  0  0  0  0  0  0  0
   13.0726   -4.6648   23.3394 O   0  0  0  0  0  0  0  0  0  0  0  0
    8.5955   -6.0705   17.3996 C   0  0  0  0  0  0  0  0  0  0  0  0
    4.6223   -8.3832   16.5030 C   0  0  0  0  0  0  0  0  0  0  0  0
   12.4690   -5.2624   19.9024 C   0  0  0  0  0  0  0  0  0  0  0  0
    3.2548   -9.9919   17.4189 C   0  0  0  0  0  0  0  0  0  0  0  0
   12.4767   -4.7393   22.1790 C   0  0  0  0  0  0  0  0  0  0  0  0
    7.8593   -5.3772   15.3569 N   0  0  0  0  0  0  0  0  0  0  0  0
    7.4412   -6.9038   16.9283 C   0  0  0  0  0  0  0  0  0  0  0  0
  1 21  4  0
  1 23  4  0
  2  5  1  0
  2 13  4  0
  2 16  4  0
  3  6  4  0
  3  7  4  0
  4 13  4  0
  4 19  4  0
  4 24  4  0
  6 23  4  0
  7 16  1  0
  7 21  4  0
  8 18  1  0
  9 20  4  0
  9 22  4  0
 10 17  1  0
 10 25  1  0
 11 16  4  0
 11 19  4  0
 12 15  4  0
 12 22  4  0
 14 24  4  0
 14 25  4  0
 15 17  4  0
 17 20  4  0
 18 23  1  0
 19 25  4  0
M  END
$$$$

 Created by Python create_sdf_string function

 25 28  0  0  0  0  0  0  0  0999 V2000
   13.1533   -5.2399   21.0682 C   0  0  0  0  0  0  0  0  0  0  0  0
   10.4729   -4.0295   17.6135 C   0  0  0  0  0  0  0  0  0  0  0  0
   10.4789   -4.3641   20.9564 C   0  0  0  0  0  0  0  0  0  0  0  0
    8.7421   -5.1412   16.3650 C   0  0  0  0  0  0  0  0  0  0  0  0
   11.4353   -2.9204   17.8044 C   0  0  0  0  0  0  0  0  0  0  0  0
   11.1529   -4.3028   22.1277 C   0  0  0  0  0  0  0  0  0  0  0  0
   11.1290   -4.8502   19.8052 C   0  0  0  0  0  0  0  0  0  0  0  0
   12.4329   -4.2159   24.4224 C   0  0  0  0  0  0  0  0  0  0  0  0
    3.4740   -9.0387   16.5022 C   0  0  0  0  0  0  0  0  0  0  0  0
    6.8384   -7.9290   17.5282 N   0  0  0  0  0  0  0  0  0  0  0  0
    9.4126   -5.9853   18.4899 C   0  0  0  0  0  0  0  0  0  0  0  0
    4.2064  -10.3242   18.3302 C   0  0  0  0  0  0  0  0  0  0  0  0
    9.6599   -4.1551   16.4796 N   0  0  0  0  0  0  0  0  0  0  0  0
    7.0644   -6.4612   15.7375 N   0  0  0  0  0  0  0  0  0  0  0  0
    5.3549   -9.6322   18.3190 C   0  0  0  0  0  0  0  0  0  0  0  0
   10.3704   -4.9638   18.6510 C   0  0  0  0  0  0  0  0  0  0  0  0
    5.5935   -8.6419   17.4234 C   0  0  0  0  0  0  0  0  0  0  0  0
   13.0726   -4.6648   23.3394 O   0  0  0  0  0  0  0  0  0  0  0  0
    8.5955   -6.0705   17.3996 C   0  0  0  0  0  0  0  0  0  0  0  0
    4.6223   -8.3832   16.5030 C   0  0  0  0  0  0  0  0  0  0  0  0
   12.4690   -5.2624   19.9024 C   0  0  0  0  0  0  0  0  0  0  0  0
    3.2548   -9.9919   17.4189 C   0  0  0  0  0  0  0  0  0  0  0  0
   12.4767   -4.7393   22.1790 C   0  0  0  0  0  0  0  0  0  0  0  0
    7.8593   -5.3772   15.3569 N   0  0  0  0  0  0  0  0  0  0  0  0
    7.4412   -6.9038   16.9283 C   0  0  0  0  0  0  0  0  0  0  0  0
  1 21  4  0
  1 23  4  0
  2  5  1  0
  2 13  4  0
  2 16  4  0
  3  6  4  0
  3  7  4  0
  4 13  4  0
  4 19  4  0
  4 24  4  0
  6 23  4  0
  7 16  1  0
  7 21  4  0
  8 18  1  0
  9 20  4  0
  9 22  4  0
 10 17  1  0
 10 25  1  0
 11 16  4  0
 11 19  4  0
 12 15  4  0
 12 22  4  0
 14 24  4  0
 14 25  4  0
 15 17  4  0
 17 20  4  0
 18 23  1  0
 19 25  4  0
M  END
$$$$

 Created by Python create_sdf_string function

 25 28  0  0  0  0  0  0  0  0999 V2000
   13.1533   -5.2399   21.0682 C   0  0  0  0  0  0  0  0  0  0  0  0
   10.4729   -4.0295   17.6135 C   0  0  0  0  0  0  0  0  0  0  0  0
   10.4789   -4.3641   20.9564 C   0  0  0  0  0  0  0  0  0  0  0  0
    8.7421   -5.1412   16.3650 C   0  0  0  0  0  0  0  0  0  0  0  0
   11.4353   -2.9204   17.8044 C   0  0  0  0  0  0  0  0  0  0  0  0
   11.1529   -4.3028   22.1277 C   0  0  0  0  0  0  0  0  0  0  0  0
   11.1290   -4.8502   19.8052 C   0  0  0  0  0  0  0  0  0  0  0  0
   12.4329   -4.2159   24.4224 C   0  0  0  0  0  0  0  0  0  0  0  0
    3.4740   -9.0387   16.5022 C   0  0  0  0  0  0  0  0  0  0  0  0
    6.8384   -7.9290   17.5282 N   0  0  0  0  0  0  0  0  0  0  0  0
    9.4126   -5.9853   18.4899 C   0  0  0  0  0  0  0  0  0  0  0  0
    4.2064  -10.3242   18.3302 C   0  0  0  0  0  0  0  0  0  0  0  0
    9.6599   -4.1551   16.4796 N   0  0  0  0  0  0  0  0  0  0  0  0
    7.0644   -6.4612   15.7375 N   0  0  0  0  0  0  0  0  0  0  0  0
    5.3549   -9.6322   18.3190 C   0  0  0  0  0  0  0  0  0  0  0  0
   10.3704   -4.9638   18.6510 C   0  0  0  0  0  0  0  0  0  0  0  0
    5.5935   -8.6419   17.4234 C   0  0  0  0  0  0  0  0  0  0  0  0
   13.0726   -4.6648   23.3394 O   0  0  0  0  0  0  0  0  0  0  0  0
    8.5955   -6.0705   17.3996 C   0  0  0  0  0  0  0  0  0  0  0  0
    4.6223   -8.3832   16.5030 C   0  0  0  0  0  0  0  0  0  0  0  0
   12.4690   -5.2624   19.9024 C   0  0  0  0  0  0  0  0  0  0  0  0
    3.2548   -9.9919   17.4189 C   0  0  0  0  0  0  0  0  0  0  0  0
   12.4767   -4.7393   22.1790 C   0  0  0  0  0  0  0  0  0  0  0  0
    7.8593   -5.3772   15.3569 N   0  0  0  0  0  0  0  0  0  0  0  0
    7.4412   -6.9038   16.9283 C   0  0  0  0  0  0  0  0  0  0  0  0
  1 21  4  0
  1 23  4  0
  2  5  1  0
  2 13  4  0
  2 16  4  0
  3  6  4  0
  3  7  4  0
  4 13  4  0
  4 19  4  0
  4 24  4  0
  6 23  4  0
  7 16  1  0
  7 21  4  0
  8 18  1  0
  9 20  4  0
  9 22  4  0
 10 17  1  0
 10 25  1  0
 11 16  4  0
 11 19  4  0
 12 15  4  0
 12 22  4  0
 14 24  4  0
 14 25  4  0
 15 17  4  0
 17 20  4  0
 18 23  1  0
 19 25  4  0
M  END
$$$$

 Created by Python create_sdf_string function

 25 28  0  0  0  0  0  0  0  0999 V2000
   13.1533   -5.2399   21.0682 C   0  0  0  0  0  0  0  0  0  0  0  0
   10.4729   -4.0295   17.6135 C   0  0  0  0  0  0  0  0  0  0  0  0
   10.4789   -4.3641   20.9564 C   0  0  0  0  0  0  0  0  0  0  0  0
    8.7421   -5.1412   16.3650 C   0  0  0  0  0  0  0  0  0  0  0  0
   11.4353   -2.9204   17.8044 C   0  0  0  0  0  0  0  0  0  0  0  0
   11.1529   -4.3028   22.1277 C   0  0  0  0  0  0  0  0  0  0  0  0
   11.1290   -4.8502   19.8052 C   0  0  0  0  0  0  0  0  0  0  0  0
   12.4329   -4.2159   24.4224 C   0  0  0  0  0  0  0  0  0  0  0  0
    3.4740   -9.0387   16.5022 C   0  0  0  0  0  0  0  0  0  0  0  0
    6.8384   -7.9290   17.5282 N   0  0  0  0  0  0  0  0  0  0  0  0
    9.4126   -5.9853   18.4899 C   0  0  0  0  0  0  0  0  0  0  0  0
    4.2064  -10.3242   18.3302 C   0  0  0  0  0  0  0  0  0  0  0  0
    9.6599   -4.1551   16.4796 N   0  0  0  0  0  0  0  0  0  0  0  0
    7.0644   -6.4612   15.7375 N   0  0  0  0  0  0  0  0  0  0  0  0
    5.3549   -9.6322   18.3190 C   0  0  0  0  0  0  0  0  0  0  0  0
   10.3704   -4.9638   18.6510 C   0  0  0  0  0  0  0  0  0  0  0  0
    5.5935   -8.6419   17.4234 C   0  0  0  0  0  0  0  0  0  0  0  0
   13.0726   -4.6648   23.3394 O   0  0  0  0  0  0  0  0  0  0  0  0
    8.5955   -6.0705   17.3996 C   0  0  0  0  0  0  0  0  0  0  0  0
    4.6223   -8.3832   16.5030 C   0  0  0  0  0  0  0  0  0  0  0  0
   12.4690   -5.2624   19.9024 C   0  0  0  0  0  0  0  0  0  0  0  0
    3.2548   -9.9919   17.4189 C   0  0  0  0  0  0  0  0  0  0  0  0
   12.4767   -4.7393   22.1790 C   0  0  0  0  0  0  0  0  0  0  0  0
    7.8593   -5.3772   15.3569 N   0  0  0  0  0  0  0  0  0  0  0  0
    7.4412   -6.9038   16.9283 C   0  0  0  0  0  0  0  0  0  0  0  0
  1 21  4  0
  1 23  4  0
  2  5  1  0
  2 13  4  0
  2 16  4  0
  3  6  4  0
  3  7  4  0
  4 13  4  0
  4 19  4  0
  4 24  4  0
  6 23  4  0
  7 16  1  0
  7 21  4  0
  8 18  1  0
  9 20  4  0
  9 22  4  0
 10 17  1  0
 10 25  1  0
 11 16  4  0
 11 19  4  0
 12 15  4  0
 12 22  4  0
 14 24  4  0
 14 25  4  0
 15 17  4  0
 17 20  4  0
 18 23  1  0
 19 25  4  0
M  END
$$$$

 Created by Python create_sdf_string function

 25 28  0  0  0  0  0  0  0  0999 V2000
   13.1533   -5.2399   21.0682 C   0  0  0  0  0  0  0  0  0  0  0  0
   10.4729   -4.0295   17.6135 C   0  0  0  0  0  0  0  0  0  0  0  0
   10.4789   -4.3641   20.9564 C   0  0  0  0  0  0  0  0  0  0  0  0
    8.7421   -5.1412   16.3650 C   0  0  0  0  0  0  0  0  0  0  0  0
   11.4353   -2.9204   17.8044 C   0  0  0  0  0  0  0  0  0  0  0  0
   11.1529   -4.3028   22.1277 C   0  0  0  0  0  0  0  0  0  0  0  0
   11.1290   -4.8502   19.8052 C   0  0  0  0  0  0  0  0  0  0  0  0
   12.4329   -4.2159   24.4224 C   0  0  0  0  0  0  0  0  0  0  0  0
    3.4740   -9.0387   16.5022 C   0  0  0  0  0  0  0  0  0  0  0  0
    6.8384   -7.9290   17.5282 N   0  0  0  0  0  0  0  0  0  0  0  0
    9.4126   -5.9853   18.4899 C   0  0  0  0  0  0  0  0  0  0  0  0
    4.2064  -10.3242   18.3302 C   0  0  0  0  0  0  0  0  0  0  0  0
    9.6599   -4.1551   16.4796 N   0  0  0  0  0  0  0  0  0  0  0  0
    7.0644   -6.4612   15.7375 N   0  0  0  0  0  0  0  0  0  0  0  0
    5.3549   -9.6322   18.3190 C   0  0  0  0  0  0  0  0  0  0  0  0
   10.3704   -4.9638   18.6510 C   0  0  0  0  0  0  0  0  0  0  0  0
    5.5935   -8.6419   17.4234 C   0  0  0  0  0  0  0  0  0  0  0  0
   13.0726   -4.6648   23.3394 O   0  0  0  0  0  0  0  0  0  0  0  0
    8.5955   -6.0705   17.3996 C   0  0  0  0  0  0  0  0  0  0  0  0
    4.6223   -8.3832   16.5030 C   0  0  0  0  0  0  0  0  0  0  0  0
   12.4690   -5.2624   19.9024 C   0  0  0  0  0  0  0  0  0  0  0  0
    3.2548   -9.9919   17.4189 C   0  0  0  0  0  0  0  0  0  0  0  0
   12.4767   -4.7393   22.1790 C   0  0  0  0  0  0  0  0  0  0  0  0
    7.8593   -5.3772   15.3569 N   0  0  0  0  0  0  0  0  0  0  0  0
    7.4412   -6.9038   16.9283 C   0  0  0  0  0  0  0  0  0  0  0  0
  1 21  4  0
  1 23  4  0
  2  5  1  0
  2 13  4  0
  2 16  4  0
  3  6  4  0
  3  7  4  0
  4 13  4  0
  4 19  4  0
  4 24  4  0
  6 23  4  0
  7 16  1  0
  7 21  4  0
  8 18  1  0
  9 20  4  0
  9 22  4  0
 10 17  1  0
 10 25  1  0
 11 16  4  0
 11 19  4  0
 12 15  4  0
 12 22  4  0
 14 24  4  0
 14 25  4  0
 15 17  4  0
 17 20  4  0
 18 23  1  0
 19 25  4  0
M  END
$$$$

 Created by Python create_sdf_string function

 25 28  0  0  0  0  0  0  0  0999 V2000
   13.1533   -5.2399   21.0682 C   0  0  0  0  0  0  0  0  0  0  0  0
   10.4729   -4.0295   17.6135 C   0  0  0  0  0  0  0  0  0  0  0  0
   10.4789   -4.3641   20.9564 C   0  0  0  0  0  0  0  0  0  0  0  0
    8.7421   -5.1412   16.3650 C   0  0  0  0  0  0  0  0  0  0  0  0
   11.4353   -2.9204   17.8044 C   0  0  0  0  0  0  0  0  0  0  0  0
   11.1529   -4.3028   22.1277 C   0  0  0  0  0  0  0  0  0  0  0  0
   11.1290   -4.8502   19.8052 C   0  0  0  0  0  0  0  0  0  0  0  0
   12.4329   -4.2159   24.4224 C   0  0  0  0  0  0  0  0  0  0  0  0
    3.4740   -9.0387   16.5022 C   0  0  0  0  0  0  0  0  0  0  0  0
    6.8384   -7.9290   17.5282 N   0  0  0  0  0  0  0  0  0  0  0  0
    9.4126   -5.9853   18.4899 C   0  0  0  0  0  0  0  0  0  0  0  0
    4.2064  -10.3242   18.3302 C   0  0  0  0  0  0  0  0  0  0  0  0
    9.6599   -4.1551   16.4796 N   0  0  0  0  0  0  0  0  0  0  0  0
    7.0644   -6.4612   15.7375 N   0  0  0  0  0  0  0  0  0  0  0  0
    5.3549   -9.6322   18.3190 C   0  0  0  0  0  0  0  0  0  0  0  0
   10.3704   -4.9638   18.6510 C   0  0  0  0  0  0  0  0  0  0  0  0
    5.5935   -8.6419   17.4234 C   0  0  0  0  0  0  0  0  0  0  0  0
   13.0726   -4.6648   23.3394 O   0  0  0  0  0  0  0  0  0  0  0  0
    8.5955   -6.0705   17.3996 C   0  0  0  0  0  0  0  0  0  0  0  0
    4.6223   -8.3832   16.5030 C   0  0  0  0  0  0  0  0  0  0  0  0
   12.4690   -5.2624   19.9024 C   0  0  0  0  0  0  0  0  0  0  0  0
    3.2548   -9.9919   17.4189 C   0  0  0  0  0  0  0  0  0  0  0  0
   12.4767   -4.7393   22.1790 C   0  0  0  0  0  0  0  0  0  0  0  0
    7.8593   -5.3772   15.3569 N   0  0  0  0  0  0  0  0  0  0  0  0
    7.4412   -6.9038   16.9283 C   0  0  0  0  0  0  0  0  0  0  0  0
  1 21  4  0
  1 23  4  0
  2  5  1  0
  2 13  4  0
  2 16  4  0
  3  6  4  0
  3  7  4  0
  4 13  4  0
  4 19  4  0
  4 24  4  0
  6 23  4  0
  7 16  1  0
  7 21  4  0
  8 18  1  0
  9 20  4  0
  9 22  4  0
 10 17  1  0
 10 25  1  0
 11 16  4  0
 11 19  4  0
 12 15  4  0
 12 22  4  0
 14 24  4  0
 14 25  4  0
 15 17  4  0
 17 20  4  0
 18 23  1  0
 19 25  4  0
M  END
$$$$

 Created by Python create_sdf_string function

 25 28  0  0  0  0  0  0  0  0999 V2000
   13.1533   -5.2399   21.0682 C   0  0  0  0  0  0  0  0  0  0  0  0
   10.4729   -4.0295   17.6135 C   0  0  0  0  0  0  0  0  0  0  0  0
   10.4789   -4.3641   20.9564 C   0  0  0  0  0  0  0  0  0  0  0  0
    8.7421   -5.1412   16.3650 C   0  0  0  0  0  0  0  0  0  0  0  0
   11.4353   -2.9204   17.8044 C   0  0  0  0  0  0  0  0  0  0  0  0
   11.1529   -4.3028   22.1277 C   0  0  0  0  0  0  0  0  0  0  0  0
   11.1290   -4.8502   19.8052 C   0  0  0  0  0  0  0  0  0  0  0  0
   12.4329   -4.2159   24.4224 C   0  0  0  0  0  0  0  0  0  0  0  0
    3.4740   -9.0387   16.5022 C   0  0  0  0  0  0  0  0  0  0  0  0
    6.8384   -7.9290   17.5282 N   0  0  0  0  0  0  0  0  0  0  0  0
    9.4126   -5.9853   18.4899 C   0  0  0  0  0  0  0  0  0  0  0  0
    4.2064  -10.3242   18.3302 C   0  0  0  0  0  0  0  0  0  0  0  0
    9.6599   -4.1551   16.4796 N   0  0  0  0  0  0  0  0  0  0  0  0
    7.0644   -6.4612   15.7375 N   0  0  0  0  0  0  0  0  0  0  0  0
    5.3549   -9.6322   18.3190 C   0  0  0  0  0  0  0  0  0  0  0  0
   10.3704   -4.9638   18.6510 C   0  0  0  0  0  0  0  0  0  0  0  0
    5.5935   -8.6419   17.4234 C   0  0  0  0  0  0  0  0  0  0  0  0
   13.0726   -4.6648   23.3394 O   0  0  0  0  0  0  0  0  0  0  0  0
    8.5955   -6.0705   17.3996 C   0  0  0  0  0  0  0  0  0  0  0  0
    4.6223   -8.3832   16.5030 C   0  0  0  0  0  0  0  0  0  0  0  0
   12.4690   -5.2624   19.9024 C   0  0  0  0  0  0  0  0  0  0  0  0
    3.2548   -9.9919   17.4189 C   0  0  0  0  0  0  0  0  0  0  0  0
   12.4767   -4.7393   22.1790 C   0  0  0  0  0  0  0  0  0  0  0  0
    7.8593   -5.3772   15.3569 N   0  0  0  0  0  0  0  0  0  0  0  0
    7.4412   -6.9038   16.9283 C   0  0  0  0  0  0  0  0  0  0  0  0
  1 21  4  0
  1 23  4  0
  2  5  1  0
  2 13  4  0
  2 16  4  0
  3  6  4  0
  3  7  4  0
  4 13  4  0
  4 19  4  0
  4 24  4  0
  6 23  4  0
  7 16  1  0
  7 21  4  0
  8 18  1  0
  9 20  4  0
  9 22  4  0
 10 17  1  0
 10 25  1  0
 11 16  4  0
 11 19  4  0
 12 15  4  0
 12 22  4  0
 14 24  4  0
 14 25  4  0
 15 17  4  0
 17 20  4  0
 18 23  1  0
 19 25  4  0
M  END
$$$$

 Created by Python create_sdf_string function

 25 28  0  0  0  0  0  0  0  0999 V2000
   13.1533   -5.2399   21.0682 C   0  0  0  0  0  0  0  0  0  0  0  0
   10.4729   -4.0295   17.6135 C   0  0  0  0  0  0  0  0  0  0  0  0
   10.4789   -4.3641   20.9564 C   0  0  0  0  0  0  0  0  0  0  0  0
    8.7421   -5.1412   16.3650 C   0  0  0  0  0  0  0  0  0  0  0  0
   11.4353   -2.9204   17.8044 C   0  0  0  0  0  0  0  0  0  0  0  0
   11.1529   -4.3028   22.1277 C   0  0  0  0  0  0  0  0  0  0  0  0
   11.1290   -4.8502   19.8052 C   0  0  0  0  0  0  0  0  0  0  0  0
   12.4329   -4.2159   24.4224 C   0  0  0  0  0  0  0  0  0  0  0  0
    3.4740   -9.0387   16.5022 C   0  0  0  0  0  0  0  0  0  0  0  0
    6.8384   -7.9290   17.5282 N   0  0  0  0  0  0  0  0  0  0  0  0
    9.4126   -5.9853   18.4899 C   0  0  0  0  0  0  0  0  0  0  0  0
    4.2064  -10.3242   18.3302 C   0  0  0  0  0  0  0  0  0  0  0  0
    9.6599   -4.1551   16.4796 N   0  0  0  0  0  0  0  0  0  0  0  0
    7.0644   -6.4612   15.7375 N   0  0  0  0  0  0  0  0  0  0  0  0
    5.3549   -9.6322   18.3190 C   0  0  0  0  0  0  0  0  0  0  0  0
   10.3704   -4.9638   18.6510 C   0  0  0  0  0  0  0  0  0  0  0  0
    5.5935   -8.6419   17.4234 C   0  0  0  0  0  0  0  0  0  0  0  0
   13.0726   -4.6648   23.3394 O   0  0  0  0  0  0  0  0  0  0  0  0
    8.5955   -6.0705   17.3996 C   0  0  0  0  0  0  0  0  0  0  0  0
    4.6223   -8.3832   16.5030 C   0  0  0  0  0  0  0  0  0  0  0  0
   12.4690   -5.2624   19.9024 C   0  0  0  0  0  0  0  0  0  0  0  0
    3.2548   -9.9919   17.4189 C   0  0  0  0  0  0  0  0  0  0  0  0
   12.4767   -4.7393   22.1790 C   0  0  0  0  0  0  0  0  0  0  0  0
    7.8593   -5.3772   15.3569 N   0  0  0  0  0  0  0  0  0  0  0  0
    7.4412   -6.9038   16.9283 C   0  0  0  0  0  0  0  0  0  0  0  0
  1 21  4  0
  1 23  4  0
  2  5  1  0
  2 13  4  0
  2 16  4  0
  3  6  4  0
  3  7  4  0
  4 13  4  0
  4 19  4  0
  4 24  4  0
  6 23  4  0
  7 16  1  0
  7 21  4  0
  8 18  1  0
  9 20  4  0
  9 22  4  0
 10 17  1  0
 10 25  1  0
 11 16  4  0
 11 19  4  0
 12 15  4  0
 12 22  4  0
 14 24  4  0
 14 25  4  0
 15 17  4  0
 17 20  4  0
 18 23  1  0
 19 25  4  0
M  END
$$$$

 Created by Python create_sdf_string function

 25 28  0  0  0  0  0  0  0  0999 V2000
   13.1533   -5.2399   21.0682 C   0  0  0  0  0  0  0  0  0  0  0  0
   10.4729   -4.0295   17.6135 C   0  0  0  0  0  0  0  0  0  0  0  0
   10.4789   -4.3641   20.9564 C   0  0  0  0  0  0  0  0  0  0  0  0
    8.7421   -5.1412   16.3650 C   0  0  0  0  0  0  0  0  0  0  0  0
   11.4353   -2.9204   17.8044 C   0  0  0  0  0  0  0  0  0  0  0  0
   11.1529   -4.3028   22.1277 C   0  0  0  0  0  0  0  0  0  0  0  0
   11.1290   -4.8502   19.8052 C   0  0  0  0  0  0  0  0  0  0  0  0
   12.4329   -4.2159   24.4224 C   0  0  0  0  0  0  0  0  0  0  0  0
    3.4740   -9.0387   16.5022 C   0  0  0  0  0  0  0  0  0  0  0  0
    6.8384   -7.9290   17.5282 N   0  0  0  0  0  0  0  0  0  0  0  0
    9.4126   -5.9853   18.4899 C   0  0  0  0  0  0  0  0  0  0  0  0
    4.2064  -10.3242   18.3302 C   0  0  0  0  0  0  0  0  0  0  0  0
    9.6599   -4.1551   16.4796 N   0  0  0  0  0  0  0  0  0  0  0  0
    7.0644   -6.4612   15.7375 N   0  0  0  0  0  0  0  0  0  0  0  0
    5.3549   -9.6322   18.3190 C   0  0  0  0  0  0  0  0  0  0  0  0
   10.3704   -4.9638   18.6510 C   0  0  0  0  0  0  0  0  0  0  0  0
    5.5935   -8.6419   17.4234 C   0  0  0  0  0  0  0  0  0  0  0  0
   13.0726   -4.6648   23.3394 O   0  0  0  0  0  0  0  0  0  0  0  0
    8.5955   -6.0705   17.3996 C   0  0  0  0  0  0  0  0  0  0  0  0
    4.6223   -8.3832   16.5030 C   0  0  0  0  0  0  0  0  0  0  0  0
   12.4690   -5.2624   19.9024 C   0  0  0  0  0  0  0  0  0  0  0  0
    3.2548   -9.9919   17.4189 C   0  0  0  0  0  0  0  0  0  0  0  0
   12.4767   -4.7393   22.1790 C   0  0  0  0  0  0  0  0  0  0  0  0
    7.8593   -5.3772   15.3569 N   0  0  0  0  0  0  0  0  0  0  0  0
    7.4412   -6.9038   16.9283 C   0  0  0  0  0  0  0  0  0  0  0  0
  1 21  4  0
  1 23  4  0
  2  5  1  0
  2 13  4  0
  2 16  4  0
  3  6  4  0
  3  7  4  0
  4 13  4  0
  4 19  4  0
  4 24  4  0
  6 23  4  0
  7 16  1  0
  7 21  4  0
  8 18  1  0
  9 20  4  0
  9 22  4  0
 10 17  1  0
 10 25  1  0
 11 16  4  0
 11 19  4  0
 12 15  4  0
 12 22  4  0
 14 24  4  0
 14 25  4  0
 15 17  4  0
 17 20  4  0
 18 23  1  0
 19 25  4  0
M  END
$$$$

 Created by Python create_sdf_string function

 25 28  0  0  0  0  0  0  0  0999 V2000
   13.1533   -5.2399   21.0682 C   0  0  0  0  0  0  0  0  0  0  0  0
   10.4729   -4.0295   17.6135 C   0  0  0  0  0  0  0  0  0  0  0  0
   10.4789   -4.3641   20.9564 C   0  0  0  0  0  0  0  0  0  0  0  0
    8.7421   -5.1412   16.3650 C   0  0  0  0  0  0  0  0  0  0  0  0
   11.4353   -2.9204   17.8044 C   0  0  0  0  0  0  0  0  0  0  0  0
   11.1529   -4.3028   22.1277 C   0  0  0  0  0  0  0  0  0  0  0  0
   11.1290   -4.8502   19.8052 C   0  0  0  0  0  0  0  0  0  0  0  0
   12.4329   -4.2159   24.4224 C   0  0  0  0  0  0  0  0  0  0  0  0
    3.4740   -9.0387   16.5022 C   0  0  0  0  0  0  0  0  0  0  0  0
    6.8384   -7.9290   17.5282 N   0  0  0  0  0  0  0  0  0  0  0  0
    9.4126   -5.9853   18.4899 C   0  0  0  0  0  0  0  0  0  0  0  0
    4.2064  -10.3242   18.3302 C   0  0  0  0  0  0  0  0  0  0  0  0
    9.6599   -4.1551   16.4796 N   0  0  0  0  0  0  0  0  0  0  0  0
    7.0644   -6.4612   15.7375 N   0  0  0  0  0  0  0  0  0  0  0  0
    5.3549   -9.6322   18.3190 C   0  0  0  0  0  0  0  0  0  0  0  0
   10.3704   -4.9638   18.6510 C   0  0  0  0  0  0  0  0  0  0  0  0
    5.5935   -8.6419   17.4234 C   0  0  0  0  0  0  0  0  0  0  0  0
   13.0726   -4.6648   23.3394 O   0  0  0  0  0  0  0  0  0  0  0  0
    8.5955   -6.0705   17.3996 C   0  0  0  0  0  0  0  0  0  0  0  0
    4.6223   -8.3832   16.5030 C   0  0  0  0  0  0  0  0  0  0  0  0
   12.4690   -5.2624   19.9024 C   0  0  0  0  0  0  0  0  0  0  0  0
    3.2548   -9.9919   17.4189 C   0  0  0  0  0  0  0  0  0  0  0  0
   12.4767   -4.7393   22.1790 C   0  0  0  0  0  0  0  0  0  0  0  0
    7.8593   -5.3772   15.3569 N   0  0  0  0  0  0  0  0  0  0  0  0
    7.4412   -6.9038   16.9283 C   0  0  0  0  0  0  0  0  0  0  0  0
  1 21  4  0
  1 23  4  0
  2  5  1  0
  2 13  4  0
  2 16  4  0
  3  6  4  0
  3  7  4  0
  4 13  4  0
  4 19  4  0
  4 24  4  0
  6 23  4  0
  7 16  1  0
  7 21  4  0
  8 18  1  0
  9 20  4  0
  9 22  4  0
 10 17  1  0
 10 25  1  0
 11 16  4  0
 11 19  4  0
 12 15  4  0
 12 22  4  0
 14 24  4  0
 14 25  4  0
 15 17  4  0
 17 20  4  0
 18 23  1  0
 19 25  4  0
M  END
$$$$

 Created by Python create_sdf_string function

 25 28  0  0  0  0  0  0  0  0999 V2000
   13.1533   -5.2399   21.0682 C   0  0  0  0  0  0  0  0  0  0  0  0
   10.4729   -4.0295   17.6135 C   0  0  0  0  0  0  0  0  0  0  0  0
   10.4789   -4.3641   20.9564 C   0  0  0  0  0  0  0  0  0  0  0  0
    8.7421   -5.1412   16.3650 C   0  0  0  0  0  0  0  0  0  0  0  0
   11.4353   -2.9204   17.8044 C   0  0  0  0  0  0  0  0  0  0  0  0
   11.1529   -4.3028   22.1277 C   0  0  0  0  0  0  0  0  0  0  0  0
   11.1290   -4.8502   19.8052 C   0  0  0  0  0  0  0  0  0  0  0  0
   12.4329   -4.2159   24.4224 C   0  0  0  0  0  0  0  0  0  0  0  0
    3.4740   -9.0387   16.5022 C   0  0  0  0  0  0  0  0  0  0  0  0
    6.8384   -7.9290   17.5282 N   0  0  0  0  0  0  0  0  0  0  0  0
    9.4126   -5.9853   18.4899 C   0  0  0  0  0  0  0  0  0  0  0  0
    4.2064  -10.3242   18.3302 C   0  0  0  0  0  0  0  0  0  0  0  0
    9.6599   -4.1551   16.4796 N   0  0  0  0  0  0  0  0  0  0  0  0
    7.0644   -6.4612   15.7375 N   0  0  0  0  0  0  0  0  0  0  0  0
    5.3549   -9.6322   18.3190 C   0  0  0  0  0  0  0  0  0  0  0  0
   10.3704   -4.9638   18.6510 C   0  0  0  0  0  0  0  0  0  0  0  0
    5.5935   -8.6419   17.4234 C   0  0  0  0  0  0  0  0  0  0  0  0
   13.0726   -4.6648   23.3394 O   0  0  0  0  0  0  0  0  0  0  0  0
    8.5955   -6.0705   17.3996 C   0  0  0  0  0  0  0  0  0  0  0  0
    4.6223   -8.3832   16.5030 C   0  0  0  0  0  0  0  0  0  0  0  0
   12.4690   -5.2624   19.9024 C   0  0  0  0  0  0  0  0  0  0  0  0
    3.2548   -9.9919   17.4189 C   0  0  0  0  0  0  0  0  0  0  0  0
   12.4767   -4.7393   22.1790 C   0  0  0  0  0  0  0  0  0  0  0  0
    7.8593   -5.3772   15.3569 N   0  0  0  0  0  0  0  0  0  0  0  0
    7.4412   -6.9038   16.9283 C   0  0  0  0  0  0  0  0  0  0  0  0
  1 21  4  0
  1 23  4  0
  2  5  1  0
  2 13  4  0
  2 16  4  0
  3  6  4  0
  3  7  4  0
  4 13  4  0
  4 19  4  0
  4 24  4  0
  6 23  4  0
  7 16  1  0
  7 21  4  0
  8 18  1  0
  9 20  4  0
  9 22  4  0
 10 17  1  0
 10 25  1  0
 11 16  4  0
 11 19  4  0
 12 15  4  0
 12 22  4  0
 14 24  4  0
 14 25  4  0
 15 17  4  0
 17 20  4  0
 18 23  1  0
 19 25  4  0
M  END
$$$$

 Created by Python create_sdf_string function

 25 28  0  0  0  0  0  0  0  0999 V2000
   13.1533   -5.2399   21.0682 C   0  0  0  0  0  0  0  0  0  0  0  0
   10.4729   -4.0295   17.6135 C   0  0  0  0  0  0  0  0  0  0  0  0
   10.4789   -4.3641   20.9564 C   0  0  0  0  0  0  0  0  0  0  0  0
    8.7421   -5.1412   16.3650 C   0  0  0  0  0  0  0  0  0  0  0  0
   11.4353   -2.9204   17.8044 C   0  0  0  0  0  0  0  0  0  0  0  0
   11.1529   -4.3028   22.1277 C   0  0  0  0  0  0  0  0  0  0  0  0
   11.1290   -4.8502   19.8052 C   0  0  0  0  0  0  0  0  0  0  0  0
   12.4329   -4.2159   24.4224 C   0  0  0  0  0  0  0  0  0  0  0  0
    3.4740   -9.0387   16.5022 C   0  0  0  0  0  0  0  0  0  0  0  0
    6.8384   -7.9290   17.5282 N   0  0  0  0  0  0  0  0  0  0  0  0
    9.4126   -5.9853   18.4899 C   0  0  0  0  0  0  0  0  0  0  0  0
    4.2064  -10.3242   18.3302 C   0  0  0  0  0  0  0  0  0  0  0  0
    9.6599   -4.1551   16.4796 N   0  0  0  0  0  0  0  0  0  0  0  0
    7.0644   -6.4612   15.7375 N   0  0  0  0  0  0  0  0  0  0  0  0
    5.3549   -9.6322   18.3190 C   0  0  0  0  0  0  0  0  0  0  0  0
   10.3704   -4.9638   18.6510 C   0  0  0  0  0  0  0  0  0  0  0  0
    5.5935   -8.6419   17.4234 C   0  0  0  0  0  0  0  0  0  0  0  0
   13.0726   -4.6648   23.3394 O   0  0  0  0  0  0  0  0  0  0  0  0
    8.5955   -6.0705   17.3996 C   0  0  0  0  0  0  0  0  0  0  0  0
    4.6223   -8.3832   16.5030 C   0  0  0  0  0  0  0  0  0  0  0  0
   12.4690   -5.2624   19.9024 C   0  0  0  0  0  0  0  0  0  0  0  0
    3.2548   -9.9919   17.4189 C   0  0  0  0  0  0  0  0  0  0  0  0
   12.4767   -4.7393   22.1790 C   0  0  0  0  0  0  0  0  0  0  0  0
    7.8593   -5.3772   15.3569 N   0  0  0  0  0  0  0  0  0  0  0  0
    7.4412   -6.9038   16.9283 C   0  0  0  0  0  0  0  0  0  0  0  0
  1 21  4  0
  1 23  4  0
  2  5  1  0
  2 13  4  0
  2 16  4  0
  3  6  4  0
  3  7  4  0
  4 13  4  0
  4 19  4  0
  4 24  4  0
  6 23  4  0
  7 16  1  0
  7 21  4  0
  8 18  1  0
  9 20  4  0
  9 22  4  0
 10 17  1  0
 10 25  1  0
 11 16  4  0
 11 19  4  0
 12 15  4  0
 12 22  4  0
 14 24  4  0
 14 25  4  0
 15 17  4  0
 17 20  4  0
 18 23  1  0
 19 25  4  0
M  END
$$$$

 Created by Python create_sdf_string function

 25 28  0  0  0  0  0  0  0  0999 V2000
   13.1533   -5.2399   21.0682 C   0  0  0  0  0  0  0  0  0  0  0  0
   10.4729   -4.0295   17.6135 C   0  0  0  0  0  0  0  0  0  0  0  0
   10.4789   -4.3641   20.9564 C   0  0  0  0  0  0  0  0  0  0  0  0
    8.7421   -5.1412   16.3650 C   0  0  0  0  0  0  0  0  0  0  0  0
   11.4353   -2.9204   17.8044 C   0  0  0  0  0  0  0  0  0  0  0  0
   11.1529   -4.3028   22.1277 C   0  0  0  0  0  0  0  0  0  0  0  0
   11.1290   -4.8502   19.8052 C   0  0  0  0  0  0  0  0  0  0  0  0
   12.4329   -4.2159   24.4224 C   0  0  0  0  0  0  0  0  0  0  0  0
    3.4740   -9.0387   16.5022 C   0  0  0  0  0  0  0  0  0  0  0  0
    6.8384   -7.9290   17.5282 N   0  0  0  0  0  0  0  0  0  0  0  0
    9.4126   -5.9853   18.4899 C   0  0  0  0  0  0  0  0  0  0  0  0
    4.2064  -10.3242   18.3302 C   0  0  0  0  0  0  0  0  0  0  0  0
    9.6599   -4.1551   16.4796 N   0  0  0  0  0  0  0  0  0  0  0  0
    7.0644   -6.4612   15.7375 N   0  0  0  0  0  0  0  0  0  0  0  0
    5.3549   -9.6322   18.3190 C   0  0  0  0  0  0  0  0  0  0  0  0
   10.3704   -4.9638   18.6510 C   0  0  0  0  0  0  0  0  0  0  0  0
    5.5935   -8.6419   17.4234 C   0  0  0  0  0  0  0  0  0  0  0  0
   13.0726   -4.6648   23.3394 O   0  0  0  0  0  0  0  0  0  0  0  0
    8.5955   -6.0705   17.3996 C   0  0  0  0  0  0  0  0  0  0  0  0
    4.6223   -8.3832   16.5030 C   0  0  0  0  0  0  0  0  0  0  0  0
   12.4690   -5.2624   19.9024 C   0  0  0  0  0  0  0  0  0  0  0  0
    3.2548   -9.9919   17.4189 C   0  0  0  0  0  0  0  0  0  0  0  0
   12.4767   -4.7393   22.1790 C   0  0  0  0  0  0  0  0  0  0  0  0
    7.8593   -5.3772   15.3569 N   0  0  0  0  0  0  0  0  0  0  0  0
    7.4412   -6.9038   16.9283 C   0  0  0  0  0  0  0  0  0  0  0  0
  1 21  4  0
  1 23  4  0
  2  5  1  0
  2 13  4  0
  2 16  4  0
  3  6  4  0
  3  7  4  0
  4 13  4  0
  4 19  4  0
  4 24  4  0
  6 23  4  0
  7 16  1  0
  7 21  4  0
  8 18  1  0
  9 20  4  0
  9 22  4  0
 10 17  1  0
 10 25  1  0
 11 16  4  0
 11 19  4  0
 12 15  4  0
 12 22  4  0
 14 24  4  0
 14 25  4  0
 15 17  4  0
 17 20  4  0
 18 23  1  0
 19 25  4  0
M  END
$$$$

 Created by Python create_sdf_string function

 25 28  0  0  0  0  0  0  0  0999 V2000
   13.1533   -5.2399   21.0682 C   0  0  0  0  0  0  0  0  0  0  0  0
   10.4729   -4.0295   17.6135 C   0  0  0  0  0  0  0  0  0  0  0  0
   10.4789   -4.3641   20.9564 C   0  0  0  0  0  0  0  0  0  0  0  0
    8.7421   -5.1412   16.3650 C   0  0  0  0  0  0  0  0  0  0  0  0
   11.4353   -2.9204   17.8044 C   0  0  0  0  0  0  0  0  0  0  0  0
   11.1529   -4.3028   22.1277 C   0  0  0  0  0  0  0  0  0  0  0  0
   11.1290   -4.8502   19.8052 C   0  0  0  0  0  0  0  0  0  0  0  0
   12.4329   -4.2159   24.4224 C   0  0  0  0  0  0  0  0  0  0  0  0
    3.4740   -9.0387   16.5022 C   0  0  0  0  0  0  0  0  0  0  0  0
    6.8384   -7.9290   17.5282 N   0  0  0  0  0  0  0  0  0  0  0  0
    9.4126   -5.9853   18.4899 C   0  0  0  0  0  0  0  0  0  0  0  0
    4.2064  -10.3242   18.3302 C   0  0  0  0  0  0  0  0  0  0  0  0
    9.6599   -4.1551   16.4796 N   0  0  0  0  0  0  0  0  0  0  0  0
    7.0644   -6.4612   15.7375 N   0  0  0  0  0  0  0  0  0  0  0  0
    5.3549   -9.6322   18.3190 C   0  0  0  0  0  0  0  0  0  0  0  0
   10.3704   -4.9638   18.6510 C   0  0  0  0  0  0  0  0  0  0  0  0
    5.5935   -8.6419   17.4234 C   0  0  0  0  0  0  0  0  0  0  0  0
   13.0726   -4.6648   23.3394 O   0  0  0  0  0  0  0  0  0  0  0  0
    8.5955   -6.0705   17.3996 C   0  0  0  0  0  0  0  0  0  0  0  0
    4.6223   -8.3832   16.5030 C   0  0  0  0  0  0  0  0  0  0  0  0
   12.4690   -5.2624   19.9024 C   0  0  0  0  0  0  0  0  0  0  0  0
    3.2548   -9.9919   17.4189 C   0  0  0  0  0  0  0  0  0  0  0  0
   12.4767   -4.7393   22.1790 C   0  0  0  0  0  0  0  0  0  0  0  0
    7.8593   -5.3772   15.3569 N   0  0  0  0  0  0  0  0  0  0  0  0
    7.4412   -6.9038   16.9283 C   0  0  0  0  0  0  0  0  0  0  0  0
  1 21  4  0
  1 23  4  0
  2  5  1  0
  2 13  4  0
  2 16  4  0
  3  6  4  0
  3  7  4  0
  4 13  4  0
  4 19  4  0
  4 24  4  0
  6 23  4  0
  7 16  1  0
  7 21  4  0
  8 18  1  0
  9 20  4  0
  9 22  4  0
 10 17  1  0
 10 25  1  0
 11 16  4  0
 11 19  4  0
 12 15  4  0
 12 22  4  0
 14 24  4  0
 14 25  4  0
 15 17  4  0
 17 20  4  0
 18 23  1  0
 19 25  4  0
M  END
$$$$

 Created by Python create_sdf_string function

 25 28  0  0  0  0  0  0  0  0999 V2000
   13.1533   -5.2399   21.0682 C   0  0  0  0  0  0  0  0  0  0  0  0
   10.4729   -4.0295   17.6135 C   0  0  0  0  0  0  0  0  0  0  0  0
   10.4789   -4.3641   20.9564 C   0  0  0  0  0  0  0  0  0  0  0  0
    8.7421   -5.1412   16.3650 C   0  0  0  0  0  0  0  0  0  0  0  0
   11.4353   -2.9204   17.8044 C   0  0  0  0  0  0  0  0  0  0  0  0
   11.1529   -4.3028   22.1277 C   0  0  0  0  0  0  0  0  0  0  0  0
   11.1290   -4.8502   19.8052 C   0  0  0  0  0  0  0  0  0  0  0  0
   12.4329   -4.2159   24.4224 C   0  0  0  0  0  0  0  0  0  0  0  0
    3.4740   -9.0387   16.5022 C   0  0  0  0  0  0  0  0  0  0  0  0
    6.8384   -7.9290   17.5282 N   0  0  0  0  0  0  0  0  0  0  0  0
    9.4126   -5.9853   18.4899 C   0  0  0  0  0  0  0  0  0  0  0  0
    4.2064  -10.3242   18.3302 C   0  0  0  0  0  0  0  0  0  0  0  0
    9.6599   -4.1551   16.4796 N   0  0  0  0  0  0  0  0  0  0  0  0
    7.0644   -6.4612   15.7375 N   0  0  0  0  0  0  0  0  0  0  0  0
    5.3549   -9.6322   18.3190 C   0  0  0  0  0  0  0  0  0  0  0  0
   10.3704   -4.9638   18.6510 C   0  0  0  0  0  0  0  0  0  0  0  0
    5.5935   -8.6419   17.4234 C   0  0  0  0  0  0  0  0  0  0  0  0
   13.0726   -4.6648   23.3394 O   0  0  0  0  0  0  0  0  0  0  0  0
    8.5955   -6.0705   17.3996 C   0  0  0  0  0  0  0  0  0  0  0  0
    4.6223   -8.3832   16.5030 C   0  0  0  0  0  0  0  0  0  0  0  0
   12.4690   -5.2624   19.9024 C   0  0  0  0  0  0  0  0  0  0  0  0
    3.2548   -9.9919   17.4189 C   0  0  0  0  0  0  0  0  0  0  0  0
   12.4767   -4.7393   22.1790 C   0  0  0  0  0  0  0  0  0  0  0  0
    7.8593   -5.3772   15.3569 N   0  0  0  0  0  0  0  0  0  0  0  0
    7.4412   -6.9038   16.9283 C   0  0  0  0  0  0  0  0  0  0  0  0
  1 21  4  0
  1 23  4  0
  2  5  1  0
  2 13  4  0
  2 16  4  0
  3  6  4  0
  3  7  4  0
  4 13  4  0
  4 19  4  0
  4 24  4  0
  6 23  4  0
  7 16  1  0
  7 21  4  0
  8 18  1  0
  9 20  4  0
  9 22  4  0
 10 17  1  0
 10 25  1  0
 11 16  4  0
 11 19  4  0
 12 15  4  0
 12 22  4  0
 14 24  4  0
 14 25  4  0
 15 17  4  0
 17 20  4  0
 18 23  1  0
 19 25  4  0
M  END
$$$$

 Created by Python create_sdf_string function

 25 28  0  0  0  0  0  0  0  0999 V2000
   13.1533   -5.2399   21.0682 C   0  0  0  0  0  0  0  0  0  0  0  0
   10.4729   -4.0295   17.6135 C   0  0  0  0  0  0  0  0  0  0  0  0
   10.4789   -4.3641   20.9564 C   0  0  0  0  0  0  0  0  0  0  0  0
    8.7421   -5.1412   16.3650 C   0  0  0  0  0  0  0  0  0  0  0  0
   11.4353   -2.9204   17.8044 C   0  0  0  0  0  0  0  0  0  0  0  0
   11.1529   -4.3028   22.1277 C   0  0  0  0  0  0  0  0  0  0  0  0
   11.1290   -4.8502   19.8052 C   0  0  0  0  0  0  0  0  0  0  0  0
   12.4329   -4.2159   24.4224 C   0  0  0  0  0  0  0  0  0  0  0  0
    3.4740   -9.0387   16.5022 C   0  0  0  0  0  0  0  0  0  0  0  0
    6.8384   -7.9290   17.5282 N   0  0  0  0  0  0  0  0  0  0  0  0
    9.4126   -5.9853   18.4899 C   0  0  0  0  0  0  0  0  0  0  0  0
    4.2064  -10.3242   18.3302 C   0  0  0  0  0  0  0  0  0  0  0  0
    9.6599   -4.1551   16.4796 N   0  0  0  0  0  0  0  0  0  0  0  0
    7.0644   -6.4612   15.7375 N   0  0  0  0  0  0  0  0  0  0  0  0
    5.3549   -9.6322   18.3190 C   0  0  0  0  0  0  0  0  0  0  0  0
   10.3704   -4.9638   18.6510 C   0  0  0  0  0  0  0  0  0  0  0  0
    5.5935   -8.6419   17.4234 C   0  0  0  0  0  0  0  0  0  0  0  0
   13.0726   -4.6648   23.3394 O   0  0  0  0  0  0  0  0  0  0  0  0
    8.5955   -6.0705   17.3996 C   0  0  0  0  0  0  0  0  0  0  0  0
    4.6223   -8.3832   16.5030 C   0  0  0  0  0  0  0  0  0  0  0  0
   12.4690   -5.2624   19.9024 C   0  0  0  0  0  0  0  0  0  0  0  0
    3.2548   -9.9919   17.4189 C   0  0  0  0  0  0  0  0  0  0  0  0
   12.4767   -4.7393   22.1790 C   0  0  0  0  0  0  0  0  0  0  0  0
    7.8593   -5.3772   15.3569 N   0  0  0  0  0  0  0  0  0  0  0  0
    7.4412   -6.9038   16.9283 C   0  0  0  0  0  0  0  0  0  0  0  0
  1 21  4  0
  1 23  4  0
  2  5  1  0
  2 13  4  0
  2 16  4  0
  3  6  4  0
  3  7  4  0
  4 13  4  0
  4 19  4  0
  4 24  4  0
  6 23  4  0
  7 16  1  0
  7 21  4  0
  8 18  1  0
  9 20  4  0
  9 22  4  0
 10 17  1  0
 10 25  1  0
 11 16  4  0
 11 19  4  0
 12 15  4  0
 12 22  4  0
 14 24  4  0
 14 25  4  0
 15 17  4  0
 17 20  4  0
 18 23  1  0
 19 25  4  0
M  END
$$$$

 Created by Python create_sdf_string function

 25 28  0  0  0  0  0  0  0  0999 V2000
   13.1533   -5.2399   21.0682 C   0  0  0  0  0  0  0  0  0  0  0  0
   10.4729   -4.0295   17.6135 C   0  0  0  0  0  0  0  0  0  0  0  0
   10.4789   -4.3641   20.9564 C   0  0  0  0  0  0  0  0  0  0  0  0
    8.7421   -5.1412   16.3650 C   0  0  0  0  0  0  0  0  0  0  0  0
   11.4353   -2.9204   17.8044 C   0  0  0  0  0  0  0  0  0  0  0  0
   11.1529   -4.3028   22.1277 C   0  0  0  0  0  0  0  0  0  0  0  0
   11.1290   -4.8502   19.8052 C   0  0  0  0  0  0  0  0  0  0  0  0
   12.4329   -4.2159   24.4224 C   0  0  0  0  0  0  0  0  0  0  0  0
    3.4740   -9.0387   16.5022 C   0  0  0  0  0  0  0  0  0  0  0  0
    6.8384   -7.9290   17.5282 N   0  0  0  0  0  0  0  0  0  0  0  0
    9.4126   -5.9853   18.4899 C   0  0  0  0  0  0  0  0  0  0  0  0
    4.2064  -10.3242   18.3302 C   0  0  0  0  0  0  0  0  0  0  0  0
    9.6599   -4.1551   16.4796 N   0  0  0  0  0  0  0  0  0  0  0  0
    7.0644   -6.4612   15.7375 N   0  0  0  0  0  0  0  0  0  0  0  0
    5.3549   -9.6322   18.3190 C   0  0  0  0  0  0  0  0  0  0  0  0
   10.3704   -4.9638   18.6510 C   0  0  0  0  0  0  0  0  0  0  0  0
    5.5935   -8.6419   17.4234 C   0  0  0  0  0  0  0  0  0  0  0  0
   13.0726   -4.6648   23.3394 O   0  0  0  0  0  0  0  0  0  0  0  0
    8.5955   -6.0705   17.3996 C   0  0  0  0  0  0  0  0  0  0  0  0
    4.6223   -8.3832   16.5030 C   0  0  0  0  0  0  0  0  0  0  0  0
   12.4690   -5.2624   19.9024 C   0  0  0  0  0  0  0  0  0  0  0  0
    3.2548   -9.9919   17.4189 C   0  0  0  0  0  0  0  0  0  0  0  0
   12.4767   -4.7393   22.1790 C   0  0  0  0  0  0  0  0  0  0  0  0
    7.8593   -5.3772   15.3569 N   0  0  0  0  0  0  0  0  0  0  0  0
    7.4412   -6.9038   16.9283 C   0  0  0  0  0  0  0  0  0  0  0  0
  1 21  4  0
  1 23  4  0
  2  5  1  0
  2 13  4  0
  2 16  4  0
  3  6  4  0
  3  7  4  0
  4 13  4  0
  4 19  4  0
  4 24  4  0
  6 23  4  0
  7 16  1  0
  7 21  4  0
  8 18  1  0
  9 20  4  0
  9 22  4  0
 10 17  1  0
 10 25  1  0
 11 16  4  0
 11 19  4  0
 12 15  4  0
 12 22  4  0
 14 24  4  0
 14 25  4  0
 15 17  4  0
 17 20  4  0
 18 23  1  0
 19 25  4  0
M  END
$$$$

 Created by Python create_sdf_string function

 25 28  0  0  0  0  0  0  0  0999 V2000
   13.1533   -5.2399   21.0682 C   0  0  0  0  0  0  0  0  0  0  0  0
   10.4729   -4.0295   17.6135 C   0  0  0  0  0  0  0  0  0  0  0  0
   10.4789   -4.3641   20.9564 C   0  0  0  0  0  0  0  0  0  0  0  0
    8.7421   -5.1412   16.3650 C   0  0  0  0  0  0  0  0  0  0  0  0
   11.4353   -2.9204   17.8044 C   0  0  0  0  0  0  0  0  0  0  0  0
   11.1529   -4.3028   22.1277 C   0  0  0  0  0  0  0  0  0  0  0  0
   11.1290   -4.8502   19.8052 C   0  0  0  0  0  0  0  0  0  0  0  0
   12.4329   -4.2159   24.4224 C   0  0  0  0  0  0  0  0  0  0  0  0
    3.4740   -9.0387   16.5022 C   0  0  0  0  0  0  0  0  0  0  0  0
    6.8384   -7.9290   17.5282 N   0  0  0  0  0  0  0  0  0  0  0  0
    9.4126   -5.9853   18.4899 C   0  0  0  0  0  0  0  0  0  0  0  0
    4.2064  -10.3242   18.3302 C   0  0  0  0  0  0  0  0  0  0  0  0
    9.6599   -4.1551   16.4796 N   0  0  0  0  0  0  0  0  0  0  0  0
    7.0644   -6.4612   15.7375 N   0  0  0  0  0  0  0  0  0  0  0  0
    5.3549   -9.6322   18.3190 C   0  0  0  0  0  0  0  0  0  0  0  0
   10.3704   -4.9638   18.6510 C   0  0  0  0  0  0  0  0  0  0  0  0
    5.5935   -8.6419   17.4234 C   0  0  0  0  0  0  0  0  0  0  0  0
   13.0726   -4.6648   23.3394 O   0  0  0  0  0  0  0  0  0  0  0  0
    8.5955   -6.0705   17.3996 C   0  0  0  0  0  0  0  0  0  0  0  0
    4.6223   -8.3832   16.5030 C   0  0  0  0  0  0  0  0  0  0  0  0
   12.4690   -5.2624   19.9024 C   0  0  0  0  0  0  0  0  0  0  0  0
    3.2548   -9.9919   17.4189 C   0  0  0  0  0  0  0  0  0  0  0  0
   12.4767   -4.7393   22.1790 C   0  0  0  0  0  0  0  0  0  0  0  0
    7.8593   -5.3772   15.3569 N   0  0  0  0  0  0  0  0  0  0  0  0
    7.4412   -6.9038   16.9283 C   0  0  0  0  0  0  0  0  0  0  0  0
  1 21  4  0
  1 23  4  0
  2  5  1  0
  2 13  4  0
  2 16  4  0
  3  6  4  0
  3  7  4  0
  4 13  4  0
  4 19  4  0
  4 24  4  0
  6 23  4  0
  7 16  1  0
  7 21  4  0
  8 18  1  0
  9 20  4  0
  9 22  4  0
 10 17  1  0
 10 25  1  0
 11 16  4  0
 11 19  4  0
 12 15  4  0
 12 22  4  0
 14 24  4  0
 14 25  4  0
 15 17  4  0
 17 20  4  0
 18 23  1  0
 19 25  4  0
M  END
$$$$

 Created by Python create_sdf_string function

 25 28  0  0  0  0  0  0  0  0999 V2000
   13.1533   -5.2399   21.0682 C   0  0  0  0  0  0  0  0  0  0  0  0
   10.4729   -4.0295   17.6135 C   0  0  0  0  0  0  0  0  0  0  0  0
   10.4789   -4.3641   20.9564 C   0  0  0  0  0  0  0  0  0  0  0  0
    8.7421   -5.1412   16.3650 C   0  0  0  0  0  0  0  0  0  0  0  0
   11.4353   -2.9204   17.8044 C   0  0  0  0  0  0  0  0  0  0  0  0
   11.1529   -4.3028   22.1277 C   0  0  0  0  0  0  0  0  0  0  0  0
   11.1290   -4.8502   19.8052 C   0  0  0  0  0  0  0  0  0  0  0  0
   12.4329   -4.2159   24.4224 C   0  0  0  0  0  0  0  0  0  0  0  0
    3.4740   -9.0387   16.5022 C   0  0  0  0  0  0  0  0  0  0  0  0
    6.8384   -7.9290   17.5282 N   0  0  0  0  0  0  0  0  0  0  0  0
    9.4126   -5.9853   18.4899 C   0  0  0  0  0  0  0  0  0  0  0  0
    4.2064  -10.3242   18.3302 C   0  0  0  0  0  0  0  0  0  0  0  0
    9.6599   -4.1551   16.4796 N   0  0  0  0  0  0  0  0  0  0  0  0
    7.0644   -6.4612   15.7375 N   0  0  0  0  0  0  0  0  0  0  0  0
    5.3549   -9.6322   18.3190 C   0  0  0  0  0  0  0  0  0  0  0  0
   10.3704   -4.9638   18.6510 C   0  0  0  0  0  0  0  0  0  0  0  0
    5.5935   -8.6419   17.4234 C   0  0  0  0  0  0  0  0  0  0  0  0
   13.0726   -4.6648   23.3394 O   0  0  0  0  0  0  0  0  0  0  0  0
    8.5955   -6.0705   17.3996 C   0  0  0  0  0  0  0  0  0  0  0  0
    4.6223   -8.3832   16.5030 C   0  0  0  0  0  0  0  0  0  0  0  0
   12.4690   -5.2624   19.9024 C   0  0  0  0  0  0  0  0  0  0  0  0
    3.2548   -9.9919   17.4189 C   0  0  0  0  0  0  0  0  0  0  0  0
   12.4767   -4.7393   22.1790 C   0  0  0  0  0  0  0  0  0  0  0  0
    7.8593   -5.3772   15.3569 N   0  0  0  0  0  0  0  0  0  0  0  0
    7.4412   -6.9038   16.9283 C   0  0  0  0  0  0  0  0  0  0  0  0
  1 21  4  0
  1 23  4  0
  2  5  1  0
  2 13  4  0
  2 16  4  0
  3  6  4  0
  3  7  4  0
  4 13  4  0
  4 19  4  0
  4 24  4  0
  6 23  4  0
  7 16  1  0
  7 21  4  0
  8 18  1  0
  9 20  4  0
  9 22  4  0
 10 17  1  0
 10 25  1  0
 11 16  4  0
 11 19  4  0
 12 15  4  0
 12 22  4  0
 14 24  4  0
 14 25  4  0
 15 17  4  0
 17 20  4  0
 18 23  1  0
 19 25  4  0
M  END
$$$$

 Created by Python create_sdf_string function

 25 28  0  0  0  0  0  0  0  0999 V2000
   13.1533   -5.2399   21.0682 C   0  0  0  0  0  0  0  0  0  0  0  0
   10.4729   -4.0295   17.6135 C   0  0  0  0  0  0  0  0  0  0  0  0
   10.4789   -4.3641   20.9564 C   0  0  0  0  0  0  0  0  0  0  0  0
    8.7421   -5.1412   16.3650 C   0  0  0  0  0  0  0  0  0  0  0  0
   11.4353   -2.9204   17.8044 C   0  0  0  0  0  0  0  0  0  0  0  0
   11.1529   -4.3028   22.1277 C   0  0  0  0  0  0  0  0  0  0  0  0
   11.1290   -4.8502   19.8052 C   0  0  0  0  0  0  0  0  0  0  0  0
   12.4329   -4.2159   24.4224 C   0  0  0  0  0  0  0  0  0  0  0  0
    3.4740   -9.0387   16.5022 C   0  0  0  0  0  0  0  0  0  0  0  0
    6.8384   -7.9290   17.5282 N   0  0  0  0  0  0  0  0  0  0  0  0
    9.4126   -5.9853   18.4899 C   0  0  0  0  0  0  0  0  0  0  0  0
    4.2064  -10.3242   18.3302 C   0  0  0  0  0  0  0  0  0  0  0  0
    9.6599   -4.1551   16.4796 N   0  0  0  0  0  0  0  0  0  0  0  0
    7.0644   -6.4612   15.7375 N   0  0  0  0  0  0  0  0  0  0  0  0
    5.3549   -9.6322   18.3190 C   0  0  0  0  0  0  0  0  0  0  0  0
   10.3704   -4.9638   18.6510 C   0  0  0  0  0  0  0  0  0  0  0  0
    5.5935   -8.6419   17.4234 C   0  0  0  0  0  0  0  0  0  0  0  0
   13.0726   -4.6648   23.3394 O   0  0  0  0  0  0  0  0  0  0  0  0
    8.5955   -6.0705   17.3996 C   0  0  0  0  0  0  0  0  0  0  0  0
    4.6223   -8.3832   16.5030 C   0  0  0  0  0  0  0  0  0  0  0  0
   12.4690   -5.2624   19.9024 C   0  0  0  0  0  0  0  0  0  0  0  0
    3.2548   -9.9919   17.4189 C   0  0  0  0  0  0  0  0  0  0  0  0
   12.4767   -4.7393   22.1790 C   0  0  0  0  0  0  0  0  0  0  0  0
    7.8593   -5.3772   15.3569 N   0  0  0  0  0  0  0  0  0  0  0  0
    7.4412   -6.9038   16.9283 C   0  0  0  0  0  0  0  0  0  0  0  0
  1 21  4  0
  1 23  4  0
  2  5  1  0
  2 13  4  0
  2 16  4  0
  3  6  4  0
  3  7  4  0
  4 13  4  0
  4 19  4  0
  4 24  4  0
  6 23  4  0
  7 16  1  0
  7 21  4  0
  8 18  1  0
  9 20  4  0
  9 22  4  0
 10 17  1  0
 10 25  1  0
 11 16  4  0
 11 19  4  0
 12 15  4  0
 12 22  4  0
 14 24  4  0
 14 25  4  0
 15 17  4  0
 17 20  4  0
 18 23  1  0
 19 25  4  0
M  END
$$$$

 Created by Python create_sdf_string function

 25 28  0  0  0  0  0  0  0  0999 V2000
   13.1533   -5.2399   21.0682 C   0  0  0  0  0  0  0  0  0  0  0  0
   10.4729   -4.0295   17.6135 C   0  0  0  0  0  0  0  0  0  0  0  0
   10.4789   -4.3641   20.9564 C   0  0  0  0  0  0  0  0  0  0  0  0
    8.7421   -5.1412   16.3650 C   0  0  0  0  0  0  0  0  0  0  0  0
   11.4353   -2.9204   17.8044 C   0  0  0  0  0  0  0  0  0  0  0  0
   11.1529   -4.3028   22.1277 C   0  0  0  0  0  0  0  0  0  0  0  0
   11.1290   -4.8502   19.8052 C   0  0  0  0  0  0  0  0  0  0  0  0
   12.4329   -4.2159   24.4224 C   0  0  0  0  0  0  0  0  0  0  0  0
    3.4740   -9.0387   16.5022 C   0  0  0  0  0  0  0  0  0  0  0  0
    6.8384   -7.9290   17.5282 N   0  0  0  0  0  0  0  0  0  0  0  0
    9.4126   -5.9853   18.4899 C   0  0  0  0  0  0  0  0  0  0  0  0
    4.2064  -10.3242   18.3302 C   0  0  0  0  0  0  0  0  0  0  0  0
    9.6599   -4.1551   16.4796 N   0  0  0  0  0  0  0  0  0  0  0  0
    7.0644   -6.4612   15.7375 N   0  0  0  0  0  0  0  0  0  0  0  0
    5.3549   -9.6322   18.3190 C   0  0  0  0  0  0  0  0  0  0  0  0
   10.3704   -4.9638   18.6510 C   0  0  0  0  0  0  0  0  0  0  0  0
    5.5935   -8.6419   17.4234 C   0  0  0  0  0  0  0  0  0  0  0  0
   13.0726   -4.6648   23.3394 O   0  0  0  0  0  0  0  0  0  0  0  0
    8.5955   -6.0705   17.3996 C   0  0  0  0  0  0  0  0  0  0  0  0
    4.6223   -8.3832   16.5030 C   0  0  0  0  0  0  0  0  0  0  0  0
   12.4690   -5.2624   19.9024 C   0  0  0  0  0  0  0  0  0  0  0  0
    3.2548   -9.9919   17.4189 C   0  0  0  0  0  0  0  0  0  0  0  0
   12.4767   -4.7393   22.1790 C   0  0  0  0  0  0  0  0  0  0  0  0
    7.8593   -5.3772   15.3569 N   0  0  0  0  0  0  0  0  0  0  0  0
    7.4412   -6.9038   16.9283 C   0  0  0  0  0  0  0  0  0  0  0  0
  1 21  4  0
  1 23  4  0
  2  5  1  0
  2 13  4  0
  2 16  4  0
  3  6  4  0
  3  7  4  0
  4 13  4  0
  4 19  4  0
  4 24  4  0
  6 23  4  0
  7 16  1  0
  7 21  4  0
  8 18  1  0
  9 20  4  0
  9 22  4  0
 10 17  1  0
 10 25  1  0
 11 16  4  0
 11 19  4  0
 12 15  4  0
 12 22  4  0
 14 24  4  0
 14 25  4  0
 15 17  4  0
 17 20  4  0
 18 23  1  0
 19 25  4  0
M  END
$$$$

 Created by Python create_sdf_string function

 25 28  0  0  0  0  0  0  0  0999 V2000
   13.1533   -5.2399   21.0682 C   0  0  0  0  0  0  0  0  0  0  0  0
   10.4729   -4.0295   17.6135 C   0  0  0  0  0  0  0  0  0  0  0  0
   10.4789   -4.3641   20.9564 C   0  0  0  0  0  0  0  0  0  0  0  0
    8.7421   -5.1412   16.3650 C   0  0  0  0  0  0  0  0  0  0  0  0
   11.4353   -2.9204   17.8044 C   0  0  0  0  0  0  0  0  0  0  0  0
   11.1529   -4.3028   22.1277 C   0  0  0  0  0  0  0  0  0  0  0  0
   11.1290   -4.8502   19.8052 C   0  0  0  0  0  0  0  0  0  0  0  0
   12.4329   -4.2159   24.4224 C   0  0  0  0  0  0  0  0  0  0  0  0
    3.4740   -9.0387   16.5022 C   0  0  0  0  0  0  0  0  0  0  0  0
    6.8384   -7.9290   17.5282 N   0  0  0  0  0  0  0  0  0  0  0  0
    9.4126   -5.9853   18.4899 C   0  0  0  0  0  0  0  0  0  0  0  0
    4.2064  -10.3242   18.3302 C   0  0  0  0  0  0  0  0  0  0  0  0
    9.6599   -4.1551   16.4796 N   0  0  0  0  0  0  0  0  0  0  0  0
    7.0644   -6.4612   15.7375 N   0  0  0  0  0  0  0  0  0  0  0  0
    5.3549   -9.6322   18.3190 C   0  0  0  0  0  0  0  0  0  0  0  0
   10.3704   -4.9638   18.6510 C   0  0  0  0  0  0  0  0  0  0  0  0
    5.5935   -8.6419   17.4234 C   0  0  0  0  0  0  0  0  0  0  0  0
   13.0726   -4.6648   23.3394 O   0  0  0  0  0  0  0  0  0  0  0  0
    8.5955   -6.0705   17.3996 C   0  0  0  0  0  0  0  0  0  0  0  0
    4.6223   -8.3832   16.5030 C   0  0  0  0  0  0  0  0  0  0  0  0
   12.4690   -5.2624   19.9024 C   0  0  0  0  0  0  0  0  0  0  0  0
    3.2548   -9.9919   17.4189 C   0  0  0  0  0  0  0  0  0  0  0  0
   12.4767   -4.7393   22.1790 C   0  0  0  0  0  0  0  0  0  0  0  0
    7.8593   -5.3772   15.3569 N   0  0  0  0  0  0  0  0  0  0  0  0
    7.4412   -6.9038   16.9283 C   0  0  0  0  0  0  0  0  0  0  0  0
  1 21  4  0
  1 23  4  0
  2  5  1  0
  2 13  4  0
  2 16  4  0
  3  6  4  0
  3  7  4  0
  4 13  4  0
  4 19  4  0
  4 24  4  0
  6 23  4  0
  7 16  1  0
  7 21  4  0
  8 18  1  0
  9 20  4  0
  9 22  4  0
 10 17  1  0
 10 25  1  0
 11 16  4  0
 11 19  4  0
 12 15  4  0
 12 22  4  0
 14 24  4  0
 14 25  4  0
 15 17  4  0
 17 20  4  0
 18 23  1  0
 19 25  4  0
M  END
$$$$

 Created by Python create_sdf_string function

 25 28  0  0  0  0  0  0  0  0999 V2000
   13.1533   -5.2399   21.0682 C   0  0  0  0  0  0  0  0  0  0  0  0
   10.4729   -4.0295   17.6135 C   0  0  0  0  0  0  0  0  0  0  0  0
   10.4789   -4.3641   20.9564 C   0  0  0  0  0  0  0  0  0  0  0  0
    8.7421   -5.1412   16.3650 C   0  0  0  0  0  0  0  0  0  0  0  0
   11.4353   -2.9204   17.8044 C   0  0  0  0  0  0  0  0  0  0  0  0
   11.1529   -4.3028   22.1277 C   0  0  0  0  0  0  0  0  0  0  0  0
   11.1290   -4.8502   19.8052 C   0  0  0  0  0  0  0  0  0  0  0  0
   12.4329   -4.2159   24.4224 C   0  0  0  0  0  0  0  0  0  0  0  0
    3.4740   -9.0387   16.5022 C   0  0  0  0  0  0  0  0  0  0  0  0
    6.8384   -7.9290   17.5282 N   0  0  0  0  0  0  0  0  0  0  0  0
    9.4126   -5.9853   18.4899 C   0  0  0  0  0  0  0  0  0  0  0  0
    4.2064  -10.3242   18.3302 C   0  0  0  0  0  0  0  0  0  0  0  0
    9.6599   -4.1551   16.4796 N   0  0  0  0  0  0  0  0  0  0  0  0
    7.0644   -6.4612   15.7375 N   0  0  0  0  0  0  0  0  0  0  0  0
    5.3549   -9.6322   18.3190 C   0  0  0  0  0  0  0  0  0  0  0  0
   10.3704   -4.9638   18.6510 C   0  0  0  0  0  0  0  0  0  0  0  0
    5.5935   -8.6419   17.4234 C   0  0  0  0  0  0  0  0  0  0  0  0
   13.0726   -4.6648   23.3394 O   0  0  0  0  0  0  0  0  0  0  0  0
    8.5955   -6.0705   17.3996 C   0  0  0  0  0  0  0  0  0  0  0  0
    4.6223   -8.3832   16.5030 C   0  0  0  0  0  0  0  0  0  0  0  0
   12.4690   -5.2624   19.9024 C   0  0  0  0  0  0  0  0  0  0  0  0
    3.2548   -9.9919   17.4189 C   0  0  0  0  0  0  0  0  0  0  0  0
   12.4767   -4.7393   22.1790 C   0  0  0  0  0  0  0  0  0  0  0  0
    7.8593   -5.3772   15.3569 N   0  0  0  0  0  0  0  0  0  0  0  0
    7.4412   -6.9038   16.9283 C   0  0  0  0  0  0  0  0  0  0  0  0
  1 21  4  0
  1 23  4  0
  2  5  1  0
  2 13  4  0
  2 16  4  0
  3  6  4  0
  3  7  4  0
  4 13  4  0
  4 19  4  0
  4 24  4  0
  6 23  4  0
  7 16  1  0
  7 21  4  0
  8 18  1  0
  9 20  4  0
  9 22  4  0
 10 17  1  0
 10 25  1  0
 11 16  4  0
 11 19  4  0
 12 15  4  0
 12 22  4  0
 14 24  4  0
 14 25  4  0
 15 17  4  0
 17 20  4  0
 18 23  1  0
 19 25  4  0
M  END
$$$$

 Created by Python create_sdf_string function

 25 28  0  0  0  0  0  0  0  0999 V2000
   13.1533   -5.2399   21.0682 C   0  0  0  0  0  0  0  0  0  0  0  0
   10.4729   -4.0295   17.6135 C   0  0  0  0  0  0  0  0  0  0  0  0
   10.4789   -4.3641   20.9564 C   0  0  0  0  0  0  0  0  0  0  0  0
    8.7421   -5.1412   16.3650 C   0  0  0  0  0  0  0  0  0  0  0  0
   11.4353   -2.9204   17.8044 C   0  0  0  0  0  0  0  0  0  0  0  0
   11.1529   -4.3028   22.1277 C   0  0  0  0  0  0  0  0  0  0  0  0
   11.1290   -4.8502   19.8052 C   0  0  0  0  0  0  0  0  0  0  0  0
   12.4329   -4.2159   24.4224 C   0  0  0  0  0  0  0  0  0  0  0  0
    3.4740   -9.0387   16.5022 C   0  0  0  0  0  0  0  0  0  0  0  0
    6.8384   -7.9290   17.5282 N   0  0  0  0  0  0  0  0  0  0  0  0
    9.4126   -5.9853   18.4899 C   0  0  0  0  0  0  0  0  0  0  0  0
    4.2064  -10.3242   18.3302 C   0  0  0  0  0  0  0  0  0  0  0  0
    9.6599   -4.1551   16.4796 N   0  0  0  0  0  0  0  0  0  0  0  0
    7.0644   -6.4612   15.7375 N   0  0  0  0  0  0  0  0  0  0  0  0
    5.3549   -9.6322   18.3190 C   0  0  0  0  0  0  0  0  0  0  0  0
   10.3704   -4.9638   18.6510 C   0  0  0  0  0  0  0  0  0  0  0  0
    5.5935   -8.6419   17.4234 C   0  0  0  0  0  0  0  0  0  0  0  0
   13.0726   -4.6648   23.3394 O   0  0  0  0  0  0  0  0  0  0  0  0
    8.5955   -6.0705   17.3996 C   0  0  0  0  0  0  0  0  0  0  0  0
    4.6223   -8.3832   16.5030 C   0  0  0  0  0  0  0  0  0  0  0  0
   12.4690   -5.2624   19.9024 C   0  0  0  0  0  0  0  0  0  0  0  0
    3.2548   -9.9919   17.4189 C   0  0  0  0  0  0  0  0  0  0  0  0
   12.4767   -4.7393   22.1790 C   0  0  0  0  0  0  0  0  0  0  0  0
    7.8593   -5.3772   15.3569 N   0  0  0  0  0  0  0  0  0  0  0  0
    7.4412   -6.9038   16.9283 C   0  0  0  0  0  0  0  0  0  0  0  0
  1 21  4  0
  1 23  4  0
  2  5  1  0
  2 13  4  0
  2 16  4  0
  3  6  4  0
  3  7  4  0
  4 13  4  0
  4 19  4  0
  4 24  4  0
  6 23  4  0
  7 16  1  0
  7 21  4  0
  8 18  1  0
  9 20  4  0
  9 22  4  0
 10 17  1  0
 10 25  1  0
 11 16  4  0
 11 19  4  0
 12 15  4  0
 12 22  4  0
 14 24  4  0
 14 25  4  0
 15 17  4  0
 17 20  4  0
 18 23  1  0
 19 25  4  0
M  END
$$$$

 Created by Python create_sdf_string function

 25 28  0  0  0  0  0  0  0  0999 V2000
   13.1533   -5.2399   21.0682 C   0  0  0  0  0  0  0  0  0  0  0  0
   10.4729   -4.0295   17.6135 C   0  0  0  0  0  0  0  0  0  0  0  0
   10.4789   -4.3641   20.9564 C   0  0  0  0  0  0  0  0  0  0  0  0
    8.7421   -5.1412   16.3650 C   0  0  0  0  0  0  0  0  0  0  0  0
   11.4353   -2.9204   17.8044 C   0  0  0  0  0  0  0  0  0  0  0  0
   11.1529   -4.3028   22.1277 C   0  0  0  0  0  0  0  0  0  0  0  0
   11.1290   -4.8502   19.8052 C   0  0  0  0  0  0  0  0  0  0  0  0
   12.4329   -4.2159   24.4224 C   0  0  0  0  0  0  0  0  0  0  0  0
    3.4740   -9.0387   16.5022 C   0  0  0  0  0  0  0  0  0  0  0  0
    6.8384   -7.9290   17.5282 N   0  0  0  0  0  0  0  0  0  0  0  0
    9.4126   -5.9853   18.4899 C   0  0  0  0  0  0  0  0  0  0  0  0
    4.2064  -10.3242   18.3302 C   0  0  0  0  0  0  0  0  0  0  0  0
    9.6599   -4.1551   16.4796 N   0  0  0  0  0  0  0  0  0  0  0  0
    7.0644   -6.4612   15.7375 N   0  0  0  0  0  0  0  0  0  0  0  0
    5.3549   -9.6322   18.3190 C   0  0  0  0  0  0  0  0  0  0  0  0
   10.3704   -4.9638   18.6510 C   0  0  0  0  0  0  0  0  0  0  0  0
    5.5935   -8.6419   17.4234 C   0  0  0  0  0  0  0  0  0  0  0  0
   13.0726   -4.6648   23.3394 O   0  0  0  0  0  0  0  0  0  0  0  0
    8.5955   -6.0705   17.3996 C   0  0  0  0  0  0  0  0  0  0  0  0
    4.6223   -8.3832   16.5030 C   0  0  0  0  0  0  0  0  0  0  0  0
   12.4690   -5.2624   19.9024 C   0  0  0  0  0  0  0  0  0  0  0  0
    3.2548   -9.9919   17.4189 C   0  0  0  0  0  0  0  0  0  0  0  0
   12.4767   -4.7393   22.1790 C   0  0  0  0  0  0  0  0  0  0  0  0
    7.8593   -5.3772   15.3569 N   0  0  0  0  0  0  0  0  0  0  0  0
    7.4412   -6.9038   16.9283 C   0  0  0  0  0  0  0  0  0  0  0  0
  1 21  4  0
  1 23  4  0
  2  5  1  0
  2 13  4  0
  2 16  4  0
  3  6  4  0
  3  7  4  0
  4 13  4  0
  4 19  4  0
  4 24  4  0
  6 23  4  0
  7 16  1  0
  7 21  4  0
  8 18  1  0
  9 20  4  0
  9 22  4  0
 10 17  1  0
 10 25  1  0
 11 16  4  0
 11 19  4  0
 12 15  4  0
 12 22  4  0
 14 24  4  0
 14 25  4  0
 15 17  4  0
 17 20  4  0
 18 23  1  0
 19 25  4  0
M  END
$$$$

 Created by Python create_sdf_string function

 25 28  0  0  0  0  0  0  0  0999 V2000
   13.1533   -5.2399   21.0682 C   0  0  0  0  0  0  0  0  0  0  0  0
   10.4729   -4.0295   17.6135 C   0  0  0  0  0  0  0  0  0  0  0  0
   10.4789   -4.3641   20.9564 C   0  0  0  0  0  0  0  0  0  0  0  0
    8.7421   -5.1412   16.3650 C   0  0  0  0  0  0  0  0  0  0  0  0
   11.4353   -2.9204   17.8044 C   0  0  0  0  0  0  0  0  0  0  0  0
   11.1529   -4.3028   22.1277 C   0  0  0  0  0  0  0  0  0  0  0  0
   11.1290   -4.8502   19.8052 C   0  0  0  0  0  0  0  0  0  0  0  0
   12.4329   -4.2159   24.4224 C   0  0  0  0  0  0  0  0  0  0  0  0
    3.4740   -9.0387   16.5022 C   0  0  0  0  0  0  0  0  0  0  0  0
    6.8384   -7.9290   17.5282 N   0  0  0  0  0  0  0  0  0  0  0  0
    9.4126   -5.9853   18.4899 C   0  0  0  0  0  0  0  0  0  0  0  0
    4.2064  -10.3242   18.3302 C   0  0  0  0  0  0  0  0  0  0  0  0
    9.6599   -4.1551   16.4796 N   0  0  0  0  0  0  0  0  0  0  0  0
    7.0644   -6.4612   15.7375 N   0  0  0  0  0  0  0  0  0  0  0  0
    5.3549   -9.6322   18.3190 C   0  0  0  0  0  0  0  0  0  0  0  0
   10.3704   -4.9638   18.6510 C   0  0  0  0  0  0  0  0  0  0  0  0
    5.5935   -8.6419   17.4234 C   0  0  0  0  0  0  0  0  0  0  0  0
   13.0726   -4.6648   23.3394 O   0  0  0  0  0  0  0  0  0  0  0  0
    8.5955   -6.0705   17.3996 C   0  0  0  0  0  0  0  0  0  0  0  0
    4.6223   -8.3832   16.5030 C   0  0  0  0  0  0  0  0  0  0  0  0
   12.4690   -5.2624   19.9024 C   0  0  0  0  0  0  0  0  0  0  0  0
    3.2548   -9.9919   17.4189 C   0  0  0  0  0  0  0  0  0  0  0  0
   12.4767   -4.7393   22.1790 C   0  0  0  0  0  0  0  0  0  0  0  0
    7.8593   -5.3772   15.3569 N   0  0  0  0  0  0  0  0  0  0  0  0
    7.4412   -6.9038   16.9283 C   0  0  0  0  0  0  0  0  0  0  0  0
  1 21  4  0
  1 23  4  0
  2  5  1  0
  2 13  4  0
  2 16  4  0
  3  6  4  0
  3  7  4  0
  4 13  4  0
  4 19  4  0
  4 24  4  0
  6 23  4  0
  7 16  1  0
  7 21  4  0
  8 18  1  0
  9 20  4  0
  9 22  4  0
 10 17  1  0
 10 25  1  0
 11 16  4  0
 11 19  4  0
 12 15  4  0
 12 22  4  0
 14 24  4  0
 14 25  4  0
 15 17  4  0
 17 20  4  0
 18 23  1  0
 19 25  4  0
M  END
$$$$

 Created by Python create_sdf_string function

 25 28  0  0  0  0  0  0  0  0999 V2000
   13.1533   -5.2399   21.0682 C   0  0  0  0  0  0  0  0  0  0  0  0
   10.4729   -4.0295   17.6135 C   0  0  0  0  0  0  0  0  0  0  0  0
   10.4789   -4.3641   20.9564 C   0  0  0  0  0  0  0  0  0  0  0  0
    8.7421   -5.1412   16.3650 C   0  0  0  0  0  0  0  0  0  0  0  0
   11.4353   -2.9204   17.8044 C   0  0  0  0  0  0  0  0  0  0  0  0
   11.1529   -4.3028   22.1277 C   0  0  0  0  0  0  0  0  0  0  0  0
   11.1290   -4.8502   19.8052 C   0  0  0  0  0  0  0  0  0  0  0  0
   12.4329   -4.2159   24.4224 C   0  0  0  0  0  0  0  0  0  0  0  0
    3.4740   -9.0387   16.5022 C   0  0  0  0  0  0  0  0  0  0  0  0
    6.8384   -7.9290   17.5282 N   0  0  0  0  0  0  0  0  0  0  0  0
    9.4126   -5.9853   18.4899 C   0  0  0  0  0  0  0  0  0  0  0  0
    4.2064  -10.3242   18.3302 C   0  0  0  0  0  0  0  0  0  0  0  0
    9.6599   -4.1551   16.4796 N   0  0  0  0  0  0  0  0  0  0  0  0
    7.0644   -6.4612   15.7375 N   0  0  0  0  0  0  0  0  0  0  0  0
    5.3549   -9.6322   18.3190 C   0  0  0  0  0  0  0  0  0  0  0  0
   10.3704   -4.9638   18.6510 C   0  0  0  0  0  0  0  0  0  0  0  0
    5.5935   -8.6419   17.4234 C   0  0  0  0  0  0  0  0  0  0  0  0
   13.0726   -4.6648   23.3394 O   0  0  0  0  0  0  0  0  0  0  0  0
    8.5955   -6.0705   17.3996 C   0  0  0  0  0  0  0  0  0  0  0  0
    4.6223   -8.3832   16.5030 C   0  0  0  0  0  0  0  0  0  0  0  0
   12.4690   -5.2624   19.9024 C   0  0  0  0  0  0  0  0  0  0  0  0
    3.2548   -9.9919   17.4189 C   0  0  0  0  0  0  0  0  0  0  0  0
   12.4767   -4.7393   22.1790 C   0  0  0  0  0  0  0  0  0  0  0  0
    7.8593   -5.3772   15.3569 N   0  0  0  0  0  0  0  0  0  0  0  0
    7.4412   -6.9038   16.9283 C   0  0  0  0  0  0  0  0  0  0  0  0
  1 21  4  0
  1 23  4  0
  2  5  1  0
  2 13  4  0
  2 16  4  0
  3  6  4  0
  3  7  4  0
  4 13  4  0
  4 19  4  0
  4 24  4  0
  6 23  4  0
  7 16  1  0
  7 21  4  0
  8 18  1  0
  9 20  4  0
  9 22  4  0
 10 17  1  0
 10 25  1  0
 11 16  4  0
 11 19  4  0
 12 15  4  0
 12 22  4  0
 14 24  4  0
 14 25  4  0
 15 17  4  0
 17 20  4  0
 18 23  1  0
 19 25  4  0
M  END
$$$$

 Created by Python create_sdf_string function

 25 28  0  0  0  0  0  0  0  0999 V2000
   13.1533   -5.2399   21.0682 C   0  0  0  0  0  0  0  0  0  0  0  0
   10.4729   -4.0295   17.6135 C   0  0  0  0  0  0  0  0  0  0  0  0
   10.4789   -4.3641   20.9564 C   0  0  0  0  0  0  0  0  0  0  0  0
    8.7421   -5.1412   16.3650 C   0  0  0  0  0  0  0  0  0  0  0  0
   11.4353   -2.9204   17.8044 C   0  0  0  0  0  0  0  0  0  0  0  0
   11.1529   -4.3028   22.1277 C   0  0  0  0  0  0  0  0  0  0  0  0
   11.1290   -4.8502   19.8052 C   0  0  0  0  0  0  0  0  0  0  0  0
   12.4329   -4.2159   24.4224 C   0  0  0  0  0  0  0  0  0  0  0  0
    3.4740   -9.0387   16.5022 C   0  0  0  0  0  0  0  0  0  0  0  0
    6.8384   -7.9290   17.5282 N   0  0  0  0  0  0  0  0  0  0  0  0
    9.4126   -5.9853   18.4899 C   0  0  0  0  0  0  0  0  0  0  0  0
    4.2064  -10.3242   18.3302 C   0  0  0  0  0  0  0  0  0  0  0  0
    9.6599   -4.1551   16.4796 N   0  0  0  0  0  0  0  0  0  0  0  0
    7.0644   -6.4612   15.7375 N   0  0  0  0  0  0  0  0  0  0  0  0
    5.3549   -9.6322   18.3190 C   0  0  0  0  0  0  0  0  0  0  0  0
   10.3704   -4.9638   18.6510 C   0  0  0  0  0  0  0  0  0  0  0  0
    5.5935   -8.6419   17.4234 C   0  0  0  0  0  0  0  0  0  0  0  0
   13.0726   -4.6648   23.3394 O   0  0  0  0  0  0  0  0  0  0  0  0
    8.5955   -6.0705   17.3996 C   0  0  0  0  0  0  0  0  0  0  0  0
    4.6223   -8.3832   16.5030 C   0  0  0  0  0  0  0  0  0  0  0  0
   12.4690   -5.2624   19.9024 C   0  0  0  0  0  0  0  0  0  0  0  0
    3.2548   -9.9919   17.4189 C   0  0  0  0  0  0  0  0  0  0  0  0
   12.4767   -4.7393   22.1790 C   0  0  0  0  0  0  0  0  0  0  0  0
    7.8593   -5.3772   15.3569 N   0  0  0  0  0  0  0  0  0  0  0  0
    7.4412   -6.9038   16.9283 C   0  0  0  0  0  0  0  0  0  0  0  0
  1 21  4  0
  1 23  4  0
  2  5  1  0
  2 13  4  0
  2 16  4  0
  3  6  4  0
  3  7  4  0
  4 13  4  0
  4 19  4  0
  4 24  4  0
  6 23  4  0
  7 16  1  0
  7 21  4  0
  8 18  1  0
  9 20  4  0
  9 22  4  0
 10 17  1  0
 10 25  1  0
 11 16  4  0
 11 19  4  0
 12 15  4  0
 12 22  4  0
 14 24  4  0
 14 25  4  0
 15 17  4  0
 17 20  4  0
 18 23  1  0
 19 25  4  0
M  END
$$$$

 Created by Python create_sdf_string function

 25 28  0  0  0  0  0  0  0  0999 V2000
   13.1533   -5.2399   21.0682 C   0  0  0  0  0  0  0  0  0  0  0  0
   10.4729   -4.0295   17.6135 C   0  0  0  0  0  0  0  0  0  0  0  0
   10.4789   -4.3641   20.9564 C   0  0  0  0  0  0  0  0  0  0  0  0
    8.7421   -5.1412   16.3650 C   0  0  0  0  0  0  0  0  0  0  0  0
   11.4353   -2.9204   17.8044 C   0  0  0  0  0  0  0  0  0  0  0  0
   11.1529   -4.3028   22.1277 C   0  0  0  0  0  0  0  0  0  0  0  0
   11.1290   -4.8502   19.8052 C   0  0  0  0  0  0  0  0  0  0  0  0
   12.4329   -4.2159   24.4224 C   0  0  0  0  0  0  0  0  0  0  0  0
    3.4740   -9.0387   16.5022 C   0  0  0  0  0  0  0  0  0  0  0  0
    6.8384   -7.9290   17.5282 N   0  0  0  0  0  0  0  0  0  0  0  0
    9.4126   -5.9853   18.4899 C   0  0  0  0  0  0  0  0  0  0  0  0
    4.2064  -10.3242   18.3302 C   0  0  0  0  0  0  0  0  0  0  0  0
    9.6599   -4.1551   16.4796 N   0  0  0  0  0  0  0  0  0  0  0  0
    7.0644   -6.4612   15.7375 N   0  0  0  0  0  0  0  0  0  0  0  0
    5.3549   -9.6322   18.3190 C   0  0  0  0  0  0  0  0  0  0  0  0
   10.3704   -4.9638   18.6510 C   0  0  0  0  0  0  0  0  0  0  0  0
    5.5935   -8.6419   17.4234 C   0  0  0  0  0  0  0  0  0  0  0  0
   13.0726   -4.6648   23.3394 O   0  0  0  0  0  0  0  0  0  0  0  0
    8.5955   -6.0705   17.3996 C   0  0  0  0  0  0  0  0  0  0  0  0
    4.6223   -8.3832   16.5030 C   0  0  0  0  0  0  0  0  0  0  0  0
   12.4690   -5.2624   19.9024 C   0  0  0  0  0  0  0  0  0  0  0  0
    3.2548   -9.9919   17.4189 C   0  0  0  0  0  0  0  0  0  0  0  0
   12.4767   -4.7393   22.1790 C   0  0  0  0  0  0  0  0  0  0  0  0
    7.8593   -5.3772   15.3569 N   0  0  0  0  0  0  0  0  0  0  0  0
    7.4412   -6.9038   16.9283 C   0  0  0  0  0  0  0  0  0  0  0  0
  1 21  4  0
  1 23  4  0
  2  5  1  0
  2 13  4  0
  2 16  4  0
  3  6  4  0
  3  7  4  0
  4 13  4  0
  4 19  4  0
  4 24  4  0
  6 23  4  0
  7 16  1  0
  7 21  4  0
  8 18  1  0
  9 20  4  0
  9 22  4  0
 10 17  1  0
 10 25  1  0
 11 16  4  0
 11 19  4  0
 12 15  4  0
 12 22  4  0
 14 24  4  0
 14 25  4  0
 15 17  4  0
 17 20  4  0
 18 23  1  0
 19 25  4  0
M  END
$$$$

 Created by Python create_sdf_string function

 25 28  0  0  0  0  0  0  0  0999 V2000
   13.1533   -5.2399   21.0682 C   0  0  0  0  0  0  0  0  0  0  0  0
   10.4729   -4.0295   17.6135 C   0  0  0  0  0  0  0  0  0  0  0  0
   10.4789   -4.3641   20.9564 C   0  0  0  0  0  0  0  0  0  0  0  0
    8.7421   -5.1412   16.3650 C   0  0  0  0  0  0  0  0  0  0  0  0
   11.4353   -2.9204   17.8044 C   0  0  0  0  0  0  0  0  0  0  0  0
   11.1529   -4.3028   22.1277 C   0  0  0  0  0  0  0  0  0  0  0  0
   11.1290   -4.8502   19.8052 C   0  0  0  0  0  0  0  0  0  0  0  0
   12.4329   -4.2159   24.4224 C   0  0  0  0  0  0  0  0  0  0  0  0
    3.4740   -9.0387   16.5022 C   0  0  0  0  0  0  0  0  0  0  0  0
    6.8384   -7.9290   17.5282 N   0  0  0  0  0  0  0  0  0  0  0  0
    9.4126   -5.9853   18.4899 C   0  0  0  0  0  0  0  0  0  0  0  0
    4.2064  -10.3242   18.3302 C   0  0  0  0  0  0  0  0  0  0  0  0
    9.6599   -4.1551   16.4796 N   0  0  0  0  0  0  0  0  0  0  0  0
    7.0644   -6.4612   15.7375 N   0  0  0  0  0  0  0  0  0  0  0  0
    5.3549   -9.6322   18.3190 C   0  0  0  0  0  0  0  0  0  0  0  0
   10.3704   -4.9638   18.6510 C   0  0  0  0  0  0  0  0  0  0  0  0
    5.5935   -8.6419   17.4234 C   0  0  0  0  0  0  0  0  0  0  0  0
   13.0726   -4.6648   23.3394 O   0  0  0  0  0  0  0  0  0  0  0  0
    8.5955   -6.0705   17.3996 C   0  0  0  0  0  0  0  0  0  0  0  0
    4.6223   -8.3832   16.5030 C   0  0  0  0  0  0  0  0  0  0  0  0
   12.4690   -5.2624   19.9024 C   0  0  0  0  0  0  0  0  0  0  0  0
    3.2548   -9.9919   17.4189 C   0  0  0  0  0  0  0  0  0  0  0  0
   12.4767   -4.7393   22.1790 C   0  0  0  0  0  0  0  0  0  0  0  0
    7.8593   -5.3772   15.3569 N   0  0  0  0  0  0  0  0  0  0  0  0
    7.4412   -6.9038   16.9283 C   0  0  0  0  0  0  0  0  0  0  0  0
  1 21  4  0
  1 23  4  0
  2  5  1  0
  2 13  4  0
  2 16  4  0
  3  6  4  0
  3  7  4  0
  4 13  4  0
  4 19  4  0
  4 24  4  0
  6 23  4  0
  7 16  1  0
  7 21  4  0
  8 18  1  0
  9 20  4  0
  9 22  4  0
 10 17  1  0
 10 25  1  0
 11 16  4  0
 11 19  4  0
 12 15  4  0
 12 22  4  0
 14 24  4  0
 14 25  4  0
 15 17  4  0
 17 20  4  0
 18 23  1  0
 19 25  4  0
M  END
$$$$

 Created by Python create_sdf_string function

 25 28  0  0  0  0  0  0  0  0999 V2000
   13.1533   -5.2399   21.0682 C   0  0  0  0  0  0  0  0  0  0  0  0
   10.4729   -4.0295   17.6135 C   0  0  0  0  0  0  0  0  0  0  0  0
   10.4789   -4.3641   20.9564 C   0  0  0  0  0  0  0  0  0  0  0  0
    8.7421   -5.1412   16.3650 C   0  0  0  0  0  0  0  0  0  0  0  0
   11.4353   -2.9204   17.8044 C   0  0  0  0  0  0  0  0  0  0  0  0
   11.1529   -4.3028   22.1277 C   0  0  0  0  0  0  0  0  0  0  0  0
   11.1290   -4.8502   19.8052 C   0  0  0  0  0  0  0  0  0  0  0  0
   12.4329   -4.2159   24.4224 C   0  0  0  0  0  0  0  0  0  0  0  0
    3.4740   -9.0387   16.5022 C   0  0  0  0  0  0  0  0  0  0  0  0
    6.8384   -7.9290   17.5282 N   0  0  0  0  0  0  0  0  0  0  0  0
    9.4126   -5.9853   18.4899 C   0  0  0  0  0  0  0  0  0  0  0  0
    4.2064  -10.3242   18.3302 C   0  0  0  0  0  0  0  0  0  0  0  0
    9.6599   -4.1551   16.4796 N   0  0  0  0  0  0  0  0  0  0  0  0
    7.0644   -6.4612   15.7375 N   0  0  0  0  0  0  0  0  0  0  0  0
    5.3549   -9.6322   18.3190 C   0  0  0  0  0  0  0  0  0  0  0  0
   10.3704   -4.9638   18.6510 C   0  0  0  0  0  0  0  0  0  0  0  0
    5.5935   -8.6419   17.4234 C   0  0  0  0  0  0  0  0  0  0  0  0
   13.0726   -4.6648   23.3394 O   0  0  0  0  0  0  0  0  0  0  0  0
    8.5955   -6.0705   17.3996 C   0  0  0  0  0  0  0  0  0  0  0  0
    4.6223   -8.3832   16.5030 C   0  0  0  0  0  0  0  0  0  0  0  0
   12.4690   -5.2624   19.9024 C   0  0  0  0  0  0  0  0  0  0  0  0
    3.2548   -9.9919   17.4189 C   0  0  0  0  0  0  0  0  0  0  0  0
   12.4767   -4.7393   22.1790 C   0  0  0  0  0  0  0  0  0  0  0  0
    7.8593   -5.3772   15.3569 N   0  0  0  0  0  0  0  0  0  0  0  0
    7.4412   -6.9038   16.9283 C   0  0  0  0  0  0  0  0  0  0  0  0
  1 21  4  0
  1 23  4  0
  2  5  1  0
  2 13  4  0
  2 16  4  0
  3  6  4  0
  3  7  4  0
  4 13  4  0
  4 19  4  0
  4 24  4  0
  6 23  4  0
  7 16  1  0
  7 21  4  0
  8 18  1  0
  9 20  4  0
  9 22  4  0
 10 17  1  0
 10 25  1  0
 11 16  4  0
 11 19  4  0
 12 15  4  0
 12 22  4  0
 14 24  4  0
 14 25  4  0
 15 17  4  0
 17 20  4  0
 18 23  1  0
 19 25  4  0
M  END
$$$$

 Created by Python create_sdf_string function

 25 28  0  0  0  0  0  0  0  0999 V2000
   13.1533   -5.2399   21.0682 C   0  0  0  0  0  0  0  0  0  0  0  0
   10.4729   -4.0295   17.6135 C   0  0  0  0  0  0  0  0  0  0  0  0
   10.4789   -4.3641   20.9564 C   0  0  0  0  0  0  0  0  0  0  0  0
    8.7421   -5.1412   16.3650 C   0  0  0  0  0  0  0  0  0  0  0  0
   11.4353   -2.9204   17.8044 C   0  0  0  0  0  0  0  0  0  0  0  0
   11.1529   -4.3028   22.1277 C   0  0  0  0  0  0  0  0  0  0  0  0
   11.1290   -4.8502   19.8052 C   0  0  0  0  0  0  0  0  0  0  0  0
   12.4329   -4.2159   24.4224 C   0  0  0  0  0  0  0  0  0  0  0  0
    3.4740   -9.0387   16.5022 C   0  0  0  0  0  0  0  0  0  0  0  0
    6.8384   -7.9290   17.5282 N   0  0  0  0  0  0  0  0  0  0  0  0
    9.4126   -5.9853   18.4899 C   0  0  0  0  0  0  0  0  0  0  0  0
    4.2064  -10.3242   18.3302 C   0  0  0  0  0  0  0  0  0  0  0  0
    9.6599   -4.1551   16.4796 N   0  0  0  0  0  0  0  0  0  0  0  0
    7.0644   -6.4612   15.7375 N   0  0  0  0  0  0  0  0  0  0  0  0
    5.3549   -9.6322   18.3190 C   0  0  0  0  0  0  0  0  0  0  0  0
   10.3704   -4.9638   18.6510 C   0  0  0  0  0  0  0  0  0  0  0  0
    5.5935   -8.6419   17.4234 C   0  0  0  0  0  0  0  0  0  0  0  0
   13.0726   -4.6648   23.3394 O   0  0  0  0  0  0  0  0  0  0  0  0
    8.5955   -6.0705   17.3996 C   0  0  0  0  0  0  0  0  0  0  0  0
    4.6223   -8.3832   16.5030 C   0  0  0  0  0  0  0  0  0  0  0  0
   12.4690   -5.2624   19.9024 C   0  0  0  0  0  0  0  0  0  0  0  0
    3.2548   -9.9919   17.4189 C   0  0  0  0  0  0  0  0  0  0  0  0
   12.4767   -4.7393   22.1790 C   0  0  0  0  0  0  0  0  0  0  0  0
    7.8593   -5.3772   15.3569 N   0  0  0  0  0  0  0  0  0  0  0  0
    7.4412   -6.9038   16.9283 C   0  0  0  0  0  0  0  0  0  0  0  0
  1 21  4  0
  1 23  4  0
  2  5  1  0
  2 13  4  0
  2 16  4  0
  3  6  4  0
  3  7  4  0
  4 13  4  0
  4 19  4  0
  4 24  4  0
  6 23  4  0
  7 16  1  0
  7 21  4  0
  8 18  1  0
  9 20  4  0
  9 22  4  0
 10 17  1  0
 10 25  1  0
 11 16  4  0
 11 19  4  0
 12 15  4  0
 12 22  4  0
 14 24  4  0
 14 25  4  0
 15 17  4  0
 17 20  4  0
 18 23  1  0
 19 25  4  0
M  END
$$$$

 Created by Python create_sdf_string function

 25 28  0  0  0  0  0  0  0  0999 V2000
   13.1533   -5.2399   21.0682 C   0  0  0  0  0  0  0  0  0  0  0  0
   10.4729   -4.0295   17.6135 C   0  0  0  0  0  0  0  0  0  0  0  0
   10.4789   -4.3641   20.9564 C   0  0  0  0  0  0  0  0  0  0  0  0
    8.7421   -5.1412   16.3650 C   0  0  0  0  0  0  0  0  0  0  0  0
   11.4353   -2.9204   17.8044 C   0  0  0  0  0  0  0  0  0  0  0  0
   11.1529   -4.3028   22.1277 C   0  0  0  0  0  0  0  0  0  0  0  0
   11.1290   -4.8502   19.8052 C   0  0  0  0  0  0  0  0  0  0  0  0
   12.4329   -4.2159   24.4224 C   0  0  0  0  0  0  0  0  0  0  0  0
    3.4740   -9.0387   16.5022 C   0  0  0  0  0  0  0  0  0  0  0  0
    6.8384   -7.9290   17.5282 N   0  0  0  0  0  0  0  0  0  0  0  0
    9.4126   -5.9853   18.4899 C   0  0  0  0  0  0  0  0  0  0  0  0
    4.2064  -10.3242   18.3302 C   0  0  0  0  0  0  0  0  0  0  0  0
    9.6599   -4.1551   16.4796 N   0  0  0  0  0  0  0  0  0  0  0  0
    7.0644   -6.4612   15.7375 N   0  0  0  0  0  0  0  0  0  0  0  0
    5.3549   -9.6322   18.3190 C   0  0  0  0  0  0  0  0  0  0  0  0
   10.3704   -4.9638   18.6510 C   0  0  0  0  0  0  0  0  0  0  0  0
    5.5935   -8.6419   17.4234 C   0  0  0  0  0  0  0  0  0  0  0  0
   13.0726   -4.6648   23.3394 O   0  0  0  0  0  0  0  0  0  0  0  0
    8.5955   -6.0705   17.3996 C   0  0  0  0  0  0  0  0  0  0  0  0
    4.6223   -8.3832   16.5030 C   0  0  0  0  0  0  0  0  0  0  0  0
   12.4690   -5.2624   19.9024 C   0  0  0  0  0  0  0  0  0  0  0  0
    3.2548   -9.9919   17.4189 C   0  0  0  0  0  0  0  0  0  0  0  0
   12.4767   -4.7393   22.1790 C   0  0  0  0  0  0  0  0  0  0  0  0
    7.8593   -5.3772   15.3569 N   0  0  0  0  0  0  0  0  0  0  0  0
    7.4412   -6.9038   16.9283 C   0  0  0  0  0  0  0  0  0  0  0  0
  1 21  4  0
  1 23  4  0
  2  5  1  0
  2 13  4  0
  2 16  4  0
  3  6  4  0
  3  7  4  0
  4 13  4  0
  4 19  4  0
  4 24  4  0
  6 23  4  0
  7 16  1  0
  7 21  4  0
  8 18  1  0
  9 20  4  0
  9 22  4  0
 10 17  1  0
 10 25  1  0
 11 16  4  0
 11 19  4  0
 12 15  4  0
 12 22  4  0
 14 24  4  0
 14 25  4  0
 15 17  4  0
 17 20  4  0
 18 23  1  0
 19 25  4  0
M  END
$$$$

 Created by Python create_sdf_string function

 25 28  0  0  0  0  0  0  0  0999 V2000
   13.1533   -5.2399   21.0682 C   0  0  0  0  0  0  0  0  0  0  0  0
   10.4729   -4.0295   17.6135 C   0  0  0  0  0  0  0  0  0  0  0  0
   10.4789   -4.3641   20.9564 C   0  0  0  0  0  0  0  0  0  0  0  0
    8.7421   -5.1412   16.3650 C   0  0  0  0  0  0  0  0  0  0  0  0
   11.4353   -2.9204   17.8044 C   0  0  0  0  0  0  0  0  0  0  0  0
   11.1529   -4.3028   22.1277 C   0  0  0  0  0  0  0  0  0  0  0  0
   11.1290   -4.8502   19.8052 C   0  0  0  0  0  0  0  0  0  0  0  0
   12.4329   -4.2159   24.4224 C   0  0  0  0  0  0  0  0  0  0  0  0
    3.4740   -9.0387   16.5022 C   0  0  0  0  0  0  0  0  0  0  0  0
    6.8384   -7.9290   17.5282 N   0  0  0  0  0  0  0  0  0  0  0  0
    9.4126   -5.9853   18.4899 C   0  0  0  0  0  0  0  0  0  0  0  0
    4.2064  -10.3242   18.3302 C   0  0  0  0  0  0  0  0  0  0  0  0
    9.6599   -4.1551   16.4796 N   0  0  0  0  0  0  0  0  0  0  0  0
    7.0644   -6.4612   15.7375 N   0  0  0  0  0  0  0  0  0  0  0  0
    5.3549   -9.6322   18.3190 C   0  0  0  0  0  0  0  0  0  0  0  0
   10.3704   -4.9638   18.6510 C   0  0  0  0  0  0  0  0  0  0  0  0
    5.5935   -8.6419   17.4234 C   0  0  0  0  0  0  0  0  0  0  0  0
   13.0726   -4.6648   23.3394 O   0  0  0  0  0  0  0  0  0  0  0  0
    8.5955   -6.0705   17.3996 C   0  0  0  0  0  0  0  0  0  0  0  0
    4.6223   -8.3832   16.5030 C   0  0  0  0  0  0  0  0  0  0  0  0
   12.4690   -5.2624   19.9024 C   0  0  0  0  0  0  0  0  0  0  0  0
    3.2548   -9.9919   17.4189 C   0  0  0  0  0  0  0  0  0  0  0  0
   12.4767   -4.7393   22.1790 C   0  0  0  0  0  0  0  0  0  0  0  0
    7.8593   -5.3772   15.3569 N   0  0  0  0  0  0  0  0  0  0  0  0
    7.4412   -6.9038   16.9283 C   0  0  0  0  0  0  0  0  0  0  0  0
  1 21  4  0
  1 23  4  0
  2  5  1  0
  2 13  4  0
  2 16  4  0
  3  6  4  0
  3  7  4  0
  4 13  4  0
  4 19  4  0
  4 24  4  0
  6 23  4  0
  7 16  1  0
  7 21  4  0
  8 18  1  0
  9 20  4  0
  9 22  4  0
 10 17  1  0
 10 25  1  0
 11 16  4  0
 11 19  4  0
 12 15  4  0
 12 22  4  0
 14 24  4  0
 14 25  4  0
 15 17  4  0
 17 20  4  0
 18 23  1  0
 19 25  4  0
M  END
$$$$

 Created by Python create_sdf_string function

 25 28  0  0  0  0  0  0  0  0999 V2000
   13.1533   -5.2399   21.0682 C   0  0  0  0  0  0  0  0  0  0  0  0
   10.4729   -4.0295   17.6135 C   0  0  0  0  0  0  0  0  0  0  0  0
   10.4789   -4.3641   20.9564 C   0  0  0  0  0  0  0  0  0  0  0  0
    8.7421   -5.1412   16.3650 C   0  0  0  0  0  0  0  0  0  0  0  0
   11.4353   -2.9204   17.8044 C   0  0  0  0  0  0  0  0  0  0  0  0
   11.1529   -4.3028   22.1277 C   0  0  0  0  0  0  0  0  0  0  0  0
   11.1290   -4.8502   19.8052 C   0  0  0  0  0  0  0  0  0  0  0  0
   12.4329   -4.2159   24.4224 C   0  0  0  0  0  0  0  0  0  0  0  0
    3.4740   -9.0387   16.5022 C   0  0  0  0  0  0  0  0  0  0  0  0
    6.8384   -7.9290   17.5282 N   0  0  0  0  0  0  0  0  0  0  0  0
    9.4126   -5.9853   18.4899 C   0  0  0  0  0  0  0  0  0  0  0  0
    4.2064  -10.3242   18.3302 C   0  0  0  0  0  0  0  0  0  0  0  0
    9.6599   -4.1551   16.4796 N   0  0  0  0  0  0  0  0  0  0  0  0
    7.0644   -6.4612   15.7375 N   0  0  0  0  0  0  0  0  0  0  0  0
    5.3549   -9.6322   18.3190 C   0  0  0  0  0  0  0  0  0  0  0  0
   10.3704   -4.9638   18.6510 C   0  0  0  0  0  0  0  0  0  0  0  0
    5.5935   -8.6419   17.4234 C   0  0  0  0  0  0  0  0  0  0  0  0
   13.0726   -4.6648   23.3394 O   0  0  0  0  0  0  0  0  0  0  0  0
    8.5955   -6.0705   17.3996 C   0  0  0  0  0  0  0  0  0  0  0  0
    4.6223   -8.3832   16.5030 C   0  0  0  0  0  0  0  0  0  0  0  0
   12.4690   -5.2624   19.9024 C   0  0  0  0  0  0  0  0  0  0  0  0
    3.2548   -9.9919   17.4189 C   0  0  0  0  0  0  0  0  0  0  0  0
   12.4767   -4.7393   22.1790 C   0  0  0  0  0  0  0  0  0  0  0  0
    7.8593   -5.3772   15.3569 N   0  0  0  0  0  0  0  0  0  0  0  0
    7.4412   -6.9038   16.9283 C   0  0  0  0  0  0  0  0  0  0  0  0
  1 21  4  0
  1 23  4  0
  2  5  1  0
  2 13  4  0
  2 16  4  0
  3  6  4  0
  3  7  4  0
  4 13  4  0
  4 19  4  0
  4 24  4  0
  6 23  4  0
  7 16  1  0
  7 21  4  0
  8 18  1  0
  9 20  4  0
  9 22  4  0
 10 17  1  0
 10 25  1  0
 11 16  4  0
 11 19  4  0
 12 15  4  0
 12 22  4  0
 14 24  4  0
 14 25  4  0
 15 17  4  0
 17 20  4  0
 18 23  1  0
 19 25  4  0
M  END
$$$$

 Created by Python create_sdf_string function

 25 28  0  0  0  0  0  0  0  0999 V2000
   13.1533   -5.2399   21.0682 C   0  0  0  0  0  0  0  0  0  0  0  0
   10.4729   -4.0295   17.6135 C   0  0  0  0  0  0  0  0  0  0  0  0
   10.4789   -4.3641   20.9564 C   0  0  0  0  0  0  0  0  0  0  0  0
    8.7421   -5.1412   16.3650 C   0  0  0  0  0  0  0  0  0  0  0  0
   11.4353   -2.9204   17.8044 C   0  0  0  0  0  0  0  0  0  0  0  0
   11.1529   -4.3028   22.1277 C   0  0  0  0  0  0  0  0  0  0  0  0
   11.1290   -4.8502   19.8052 C   0  0  0  0  0  0  0  0  0  0  0  0
   12.4329   -4.2159   24.4224 C   0  0  0  0  0  0  0  0  0  0  0  0
    3.4740   -9.0387   16.5022 C   0  0  0  0  0  0  0  0  0  0  0  0
    6.8384   -7.9290   17.5282 N   0  0  0  0  0  0  0  0  0  0  0  0
    9.4126   -5.9853   18.4899 C   0  0  0  0  0  0  0  0  0  0  0  0
    4.2064  -10.3242   18.3302 C   0  0  0  0  0  0  0  0  0  0  0  0
    9.6599   -4.1551   16.4796 N   0  0  0  0  0  0  0  0  0  0  0  0
    7.0644   -6.4612   15.7375 N   0  0  0  0  0  0  0  0  0  0  0  0
    5.3549   -9.6322   18.3190 C   0  0  0  0  0  0  0  0  0  0  0  0
   10.3704   -4.9638   18.6510 C   0  0  0  0  0  0  0  0  0  0  0  0
    5.5935   -8.6419   17.4234 C   0  0  0  0  0  0  0  0  0  0  0  0
   13.0726   -4.6648   23.3394 O   0  0  0  0  0  0  0  0  0  0  0  0
    8.5955   -6.0705   17.3996 C   0  0  0  0  0  0  0  0  0  0  0  0
    4.6223   -8.3832   16.5030 C   0  0  0  0  0  0  0  0  0  0  0  0
   12.4690   -5.2624   19.9024 C   0  0  0  0  0  0  0  0  0  0  0  0
    3.2548   -9.9919   17.4189 C   0  0  0  0  0  0  0  0  0  0  0  0
   12.4767   -4.7393   22.1790 C   0  0  0  0  0  0  0  0  0  0  0  0
    7.8593   -5.3772   15.3569 N   0  0  0  0  0  0  0  0  0  0  0  0
    7.4412   -6.9038   16.9283 C   0  0  0  0  0  0  0  0  0  0  0  0
  1 21  4  0
  1 23  4  0
  2  5  1  0
  2 13  4  0
  2 16  4  0
  3  6  4  0
  3  7  4  0
  4 13  4  0
  4 19  4  0
  4 24  4  0
  6 23  4  0
  7 16  1  0
  7 21  4  0
  8 18  1  0
  9 20  4  0
  9 22  4  0
 10 17  1  0
 10 25  1  0
 11 16  4  0
 11 19  4  0
 12 15  4  0
 12 22  4  0
 14 24  4  0
 14 25  4  0
 15 17  4  0
 17 20  4  0
 18 23  1  0
 19 25  4  0
M  END
$$$$

 Created by Python create_sdf_string function

 25 28  0  0  0  0  0  0  0  0999 V2000
   13.1533   -5.2399   21.0682 C   0  0  0  0  0  0  0  0  0  0  0  0
   10.4729   -4.0295   17.6135 C   0  0  0  0  0  0  0  0  0  0  0  0
   10.4789   -4.3641   20.9564 C   0  0  0  0  0  0  0  0  0  0  0  0
    8.7421   -5.1412   16.3650 C   0  0  0  0  0  0  0  0  0  0  0  0
   11.4353   -2.9204   17.8044 C   0  0  0  0  0  0  0  0  0  0  0  0
   11.1529   -4.3028   22.1277 C   0  0  0  0  0  0  0  0  0  0  0  0
   11.1290   -4.8502   19.8052 C   0  0  0  0  0  0  0  0  0  0  0  0
   12.4329   -4.2159   24.4224 C   0  0  0  0  0  0  0  0  0  0  0  0
    3.4740   -9.0387   16.5022 C   0  0  0  0  0  0  0  0  0  0  0  0
    6.8384   -7.9290   17.5282 N   0  0  0  0  0  0  0  0  0  0  0  0
    9.4126   -5.9853   18.4899 C   0  0  0  0  0  0  0  0  0  0  0  0
    4.2064  -10.3242   18.3302 C   0  0  0  0  0  0  0  0  0  0  0  0
    9.6599   -4.1551   16.4796 N   0  0  0  0  0  0  0  0  0  0  0  0
    7.0644   -6.4612   15.7375 N   0  0  0  0  0  0  0  0  0  0  0  0
    5.3549   -9.6322   18.3190 C   0  0  0  0  0  0  0  0  0  0  0  0
   10.3704   -4.9638   18.6510 C   0  0  0  0  0  0  0  0  0  0  0  0
    5.5935   -8.6419   17.4234 C   0  0  0  0  0  0  0  0  0  0  0  0
   13.0726   -4.6648   23.3394 O   0  0  0  0  0  0  0  0  0  0  0  0
    8.5955   -6.0705   17.3996 C   0  0  0  0  0  0  0  0  0  0  0  0
    4.6223   -8.3832   16.5030 C   0  0  0  0  0  0  0  0  0  0  0  0
   12.4690   -5.2624   19.9024 C   0  0  0  0  0  0  0  0  0  0  0  0
    3.2548   -9.9919   17.4189 C   0  0  0  0  0  0  0  0  0  0  0  0
   12.4767   -4.7393   22.1790 C   0  0  0  0  0  0  0  0  0  0  0  0
    7.8593   -5.3772   15.3569 N   0  0  0  0  0  0  0  0  0  0  0  0
    7.4412   -6.9038   16.9283 C   0  0  0  0  0  0  0  0  0  0  0  0
  1 21  4  0
  1 23  4  0
  2  5  1  0
  2 13  4  0
  2 16  4  0
  3  6  4  0
  3  7  4  0
  4 13  4  0
  4 19  4  0
  4 24  4  0
  6 23  4  0
  7 16  1  0
  7 21  4  0
  8 18  1  0
  9 20  4  0
  9 22  4  0
 10 17  1  0
 10 25  1  0
 11 16  4  0
 11 19  4  0
 12 15  4  0
 12 22  4  0
 14 24  4  0
 14 25  4  0
 15 17  4  0
 17 20  4  0
 18 23  1  0
 19 25  4  0
M  END
$$$$

 Created by Python create_sdf_string function

 25 28  0  0  0  0  0  0  0  0999 V2000
   13.1533   -5.2399   21.0682 C   0  0  0  0  0  0  0  0  0  0  0  0
   10.4729   -4.0295   17.6135 C   0  0  0  0  0  0  0  0  0  0  0  0
   10.4789   -4.3641   20.9564 C   0  0  0  0  0  0  0  0  0  0  0  0
    8.7421   -5.1412   16.3650 C   0  0  0  0  0  0  0  0  0  0  0  0
   11.4353   -2.9204   17.8044 C   0  0  0  0  0  0  0  0  0  0  0  0
   11.1529   -4.3028   22.1277 C   0  0  0  0  0  0  0  0  0  0  0  0
   11.1290   -4.8502   19.8052 C   0  0  0  0  0  0  0  0  0  0  0  0
   12.4329   -4.2159   24.4224 C   0  0  0  0  0  0  0  0  0  0  0  0
    3.4740   -9.0387   16.5022 C   0  0  0  0  0  0  0  0  0  0  0  0
    6.8384   -7.9290   17.5282 N   0  0  0  0  0  0  0  0  0  0  0  0
    9.4126   -5.9853   18.4899 C   0  0  0  0  0  0  0  0  0  0  0  0
    4.2064  -10.3242   18.3302 C   0  0  0  0  0  0  0  0  0  0  0  0
    9.6599   -4.1551   16.4796 N   0  0  0  0  0  0  0  0  0  0  0  0
    7.0644   -6.4612   15.7375 N   0  0  0  0  0  0  0  0  0  0  0  0
    5.3549   -9.6322   18.3190 C   0  0  0  0  0  0  0  0  0  0  0  0
   10.3704   -4.9638   18.6510 C   0  0  0  0  0  0  0  0  0  0  0  0
    5.5935   -8.6419   17.4234 C   0  0  0  0  0  0  0  0  0  0  0  0
   13.0726   -4.6648   23.3394 O   0  0  0  0  0  0  0  0  0  0  0  0
    8.5955   -6.0705   17.3996 C   0  0  0  0  0  0  0  0  0  0  0  0
    4.6223   -8.3832   16.5030 C   0  0  0  0  0  0  0  0  0  0  0  0
   12.4690   -5.2624   19.9024 C   0  0  0  0  0  0  0  0  0  0  0  0
    3.2548   -9.9919   17.4189 C   0  0  0  0  0  0  0  0  0  0  0  0
   12.4767   -4.7393   22.1790 C   0  0  0  0  0  0  0  0  0  0  0  0
    7.8593   -5.3772   15.3569 N   0  0  0  0  0  0  0  0  0  0  0  0
    7.4412   -6.9038   16.9283 C   0  0  0  0  0  0  0  0  0  0  0  0
  1 21  4  0
  1 23  4  0
  2  5  1  0
  2 13  4  0
  2 16  4  0
  3  6  4  0
  3  7  4  0
  4 13  4  0
  4 19  4  0
  4 24  4  0
  6 23  4  0
  7 16  1  0
  7 21  4  0
  8 18  1  0
  9 20  4  0
  9 22  4  0
 10 17  1  0
 10 25  1  0
 11 16  4  0
 11 19  4  0
 12 15  4  0
 12 22  4  0
 14 24  4  0
 14 25  4  0
 15 17  4  0
 17 20  4  0
 18 23  1  0
 19 25  4  0
M  END
$$$$

 Created by Python create_sdf_string function

 25 28  0  0  0  0  0  0  0  0999 V2000
   13.1533   -5.2399   21.0682 C   0  0  0  0  0  0  0  0  0  0  0  0
   10.4729   -4.0295   17.6135 C   0  0  0  0  0  0  0  0  0  0  0  0
   10.4789   -4.3641   20.9564 C   0  0  0  0  0  0  0  0  0  0  0  0
    8.7421   -5.1412   16.3650 C   0  0  0  0  0  0  0  0  0  0  0  0
   11.4353   -2.9204   17.8044 C   0  0  0  0  0  0  0  0  0  0  0  0
   11.1529   -4.3028   22.1277 C   0  0  0  0  0  0  0  0  0  0  0  0
   11.1290   -4.8502   19.8052 C   0  0  0  0  0  0  0  0  0  0  0  0
   12.4329   -4.2159   24.4224 C   0  0  0  0  0  0  0  0  0  0  0  0
    3.4740   -9.0387   16.5022 C   0  0  0  0  0  0  0  0  0  0  0  0
    6.8384   -7.9290   17.5282 N   0  0  0  0  0  0  0  0  0  0  0  0
    9.4126   -5.9853   18.4899 C   0  0  0  0  0  0  0  0  0  0  0  0
    4.2064  -10.3242   18.3302 C   0  0  0  0  0  0  0  0  0  0  0  0
    9.6599   -4.1551   16.4796 N   0  0  0  0  0  0  0  0  0  0  0  0
    7.0644   -6.4612   15.7375 N   0  0  0  0  0  0  0  0  0  0  0  0
    5.3549   -9.6322   18.3190 C   0  0  0  0  0  0  0  0  0  0  0  0
   10.3704   -4.9638   18.6510 C   0  0  0  0  0  0  0  0  0  0  0  0
    5.5935   -8.6419   17.4234 C   0  0  0  0  0  0  0  0  0  0  0  0
   13.0726   -4.6648   23.3394 O   0  0  0  0  0  0  0  0  0  0  0  0
    8.5955   -6.0705   17.3996 C   0  0  0  0  0  0  0  0  0  0  0  0
    4.6223   -8.3832   16.5030 C   0  0  0  0  0  0  0  0  0  0  0  0
   12.4690   -5.2624   19.9024 C   0  0  0  0  0  0  0  0  0  0  0  0
    3.2548   -9.9919   17.4189 C   0  0  0  0  0  0  0  0  0  0  0  0
   12.4767   -4.7393   22.1790 C   0  0  0  0  0  0  0  0  0  0  0  0
    7.8593   -5.3772   15.3569 N   0  0  0  0  0  0  0  0  0  0  0  0
    7.4412   -6.9038   16.9283 C   0  0  0  0  0  0  0  0  0  0  0  0
  1 21  4  0
  1 23  4  0
  2  5  1  0
  2 13  4  0
  2 16  4  0
  3  6  4  0
  3  7  4  0
  4 13  4  0
  4 19  4  0
  4 24  4  0
  6 23  4  0
  7 16  1  0
  7 21  4  0
  8 18  1  0
  9 20  4  0
  9 22  4  0
 10 17  1  0
 10 25  1  0
 11 16  4  0
 11 19  4  0
 12 15  4  0
 12 22  4  0
 14 24  4  0
 14 25  4  0
 15 17  4  0
 17 20  4  0
 18 23  1  0
 19 25  4  0
M  END
$$$$

 Created by Python create_sdf_string function

 25 28  0  0  0  0  0  0  0  0999 V2000
   13.1533   -5.2399   21.0682 C   0  0  0  0  0  0  0  0  0  0  0  0
   10.4729   -4.0295   17.6135 C   0  0  0  0  0  0  0  0  0  0  0  0
   10.4789   -4.3641   20.9564 C   0  0  0  0  0  0  0  0  0  0  0  0
    8.7421   -5.1412   16.3650 C   0  0  0  0  0  0  0  0  0  0  0  0
   11.4353   -2.9204   17.8044 C   0  0  0  0  0  0  0  0  0  0  0  0
   11.1529   -4.3028   22.1277 C   0  0  0  0  0  0  0  0  0  0  0  0
   11.1290   -4.8502   19.8052 C   0  0  0  0  0  0  0  0  0  0  0  0
   12.4329   -4.2159   24.4224 C   0  0  0  0  0  0  0  0  0  0  0  0
    3.4740   -9.0387   16.5022 C   0  0  0  0  0  0  0  0  0  0  0  0
    6.8384   -7.9290   17.5282 N   0  0  0  0  0  0  0  0  0  0  0  0
    9.4126   -5.9853   18.4899 C   0  0  0  0  0  0  0  0  0  0  0  0
    4.2064  -10.3242   18.3302 C   0  0  0  0  0  0  0  0  0  0  0  0
    9.6599   -4.1551   16.4796 N   0  0  0  0  0  0  0  0  0  0  0  0
    7.0644   -6.4612   15.7375 N   0  0  0  0  0  0  0  0  0  0  0  0
    5.3549   -9.6322   18.3190 C   0  0  0  0  0  0  0  0  0  0  0  0
   10.3704   -4.9638   18.6510 C   0  0  0  0  0  0  0  0  0  0  0  0
    5.5935   -8.6419   17.4234 C   0  0  0  0  0  0  0  0  0  0  0  0
   13.0726   -4.6648   23.3394 O   0  0  0  0  0  0  0  0  0  0  0  0
    8.5955   -6.0705   17.3996 C   0  0  0  0  0  0  0  0  0  0  0  0
    4.6223   -8.3832   16.5030 C   0  0  0  0  0  0  0  0  0  0  0  0
   12.4690   -5.2624   19.9024 C   0  0  0  0  0  0  0  0  0  0  0  0
    3.2548   -9.9919   17.4189 C   0  0  0  0  0  0  0  0  0  0  0  0
   12.4767   -4.7393   22.1790 C   0  0  0  0  0  0  0  0  0  0  0  0
    7.8593   -5.3772   15.3569 N   0  0  0  0  0  0  0  0  0  0  0  0
    7.4412   -6.9038   16.9283 C   0  0  0  0  0  0  0  0  0  0  0  0
  1 21  4  0
  1 23  4  0
  2  5  1  0
  2 13  4  0
  2 16  4  0
  3  6  4  0
  3  7  4  0
  4 13  4  0
  4 19  4  0
  4 24  4  0
  6 23  4  0
  7 16  1  0
  7 21  4  0
  8 18  1  0
  9 20  4  0
  9 22  4  0
 10 17  1  0
 10 25  1  0
 11 16  4  0
 11 19  4  0
 12 15  4  0
 12 22  4  0
 14 24  4  0
 14 25  4  0
 15 17  4  0
 17 20  4  0
 18 23  1  0
 19 25  4  0
M  END
$$$$

 Created by Python create_sdf_string function

 25 28  0  0  0  0  0  0  0  0999 V2000
   13.1533   -5.2399   21.0682 C   0  0  0  0  0  0  0  0  0  0  0  0
   10.4729   -4.0295   17.6135 C   0  0  0  0  0  0  0  0  0  0  0  0
   10.4789   -4.3641   20.9564 C   0  0  0  0  0  0  0  0  0  0  0  0
    8.7421   -5.1412   16.3650 C   0  0  0  0  0  0  0  0  0  0  0  0
   11.4353   -2.9204   17.8044 C   0  0  0  0  0  0  0  0  0  0  0  0
   11.1529   -4.3028   22.1277 C   0  0  0  0  0  0  0  0  0  0  0  0
   11.1290   -4.8502   19.8052 C   0  0  0  0  0  0  0  0  0  0  0  0
   12.4329   -4.2159   24.4224 C   0  0  0  0  0  0  0  0  0  0  0  0
    3.4740   -9.0387   16.5022 C   0  0  0  0  0  0  0  0  0  0  0  0
    6.8384   -7.9290   17.5282 N   0  0  0  0  0  0  0  0  0  0  0  0
    9.4126   -5.9853   18.4899 C   0  0  0  0  0  0  0  0  0  0  0  0
    4.2064  -10.3242   18.3302 C   0  0  0  0  0  0  0  0  0  0  0  0
    9.6599   -4.1551   16.4796 N   0  0  0  0  0  0  0  0  0  0  0  0
    7.0644   -6.4612   15.7375 N   0  0  0  0  0  0  0  0  0  0  0  0
    5.3549   -9.6322   18.3190 C   0  0  0  0  0  0  0  0  0  0  0  0
   10.3704   -4.9638   18.6510 C   0  0  0  0  0  0  0  0  0  0  0  0
    5.5935   -8.6419   17.4234 C   0  0  0  0  0  0  0  0  0  0  0  0
   13.0726   -4.6648   23.3394 O   0  0  0  0  0  0  0  0  0  0  0  0
    8.5955   -6.0705   17.3996 C   0  0  0  0  0  0  0  0  0  0  0  0
    4.6223   -8.3832   16.5030 C   0  0  0  0  0  0  0  0  0  0  0  0
   12.4690   -5.2624   19.9024 C   0  0  0  0  0  0  0  0  0  0  0  0
    3.2548   -9.9919   17.4189 C   0  0  0  0  0  0  0  0  0  0  0  0
   12.4767   -4.7393   22.1790 C   0  0  0  0  0  0  0  0  0  0  0  0
    7.8593   -5.3772   15.3569 N   0  0  0  0  0  0  0  0  0  0  0  0
    7.4412   -6.9038   16.9283 C   0  0  0  0  0  0  0  0  0  0  0  0
  1 21  4  0
  1 23  4  0
  2  5  1  0
  2 13  4  0
  2 16  4  0
  3  6  4  0
  3  7  4  0
  4 13  4  0
  4 19  4  0
  4 24  4  0
  6 23  4  0
  7 16  1  0
  7 21  4  0
  8 18  1  0
  9 20  4  0
  9 22  4  0
 10 17  1  0
 10 25  1  0
 11 16  4  0
 11 19  4  0
 12 15  4  0
 12 22  4  0
 14 24  4  0
 14 25  4  0
 15 17  4  0
 17 20  4  0
 18 23  1  0
 19 25  4  0
M  END
$$$$

 Created by Python create_sdf_string function

 25 28  0  0  0  0  0  0  0  0999 V2000
   13.1533   -5.2399   21.0682 C   0  0  0  0  0  0  0  0  0  0  0  0
   10.4729   -4.0295   17.6135 C   0  0  0  0  0  0  0  0  0  0  0  0
   10.4789   -4.3641   20.9564 C   0  0  0  0  0  0  0  0  0  0  0  0
    8.7421   -5.1412   16.3650 C   0  0  0  0  0  0  0  0  0  0  0  0
   11.4353   -2.9204   17.8044 C   0  0  0  0  0  0  0  0  0  0  0  0
   11.1529   -4.3028   22.1277 C   0  0  0  0  0  0  0  0  0  0  0  0
   11.1290   -4.8502   19.8052 C   0  0  0  0  0  0  0  0  0  0  0  0
   12.4329   -4.2159   24.4224 C   0  0  0  0  0  0  0  0  0  0  0  0
    3.4740   -9.0387   16.5022 C   0  0  0  0  0  0  0  0  0  0  0  0
    6.8384   -7.9290   17.5282 N   0  0  0  0  0  0  0  0  0  0  0  0
    9.4126   -5.9853   18.4899 C   0  0  0  0  0  0  0  0  0  0  0  0
    4.2064  -10.3242   18.3302 C   0  0  0  0  0  0  0  0  0  0  0  0
    9.6599   -4.1551   16.4796 N   0  0  0  0  0  0  0  0  0  0  0  0
    7.0644   -6.4612   15.7375 N   0  0  0  0  0  0  0  0  0  0  0  0
    5.3549   -9.6322   18.3190 C   0  0  0  0  0  0  0  0  0  0  0  0
   10.3704   -4.9638   18.6510 C   0  0  0  0  0  0  0  0  0  0  0  0
    5.5935   -8.6419   17.4234 C   0  0  0  0  0  0  0  0  0  0  0  0
   13.0726   -4.6648   23.3394 O   0  0  0  0  0  0  0  0  0  0  0  0
    8.5955   -6.0705   17.3996 C   0  0  0  0  0  0  0  0  0  0  0  0
    4.6223   -8.3832   16.5030 C   0  0  0  0  0  0  0  0  0  0  0  0
   12.4690   -5.2624   19.9024 C   0  0  0  0  0  0  0  0  0  0  0  0
    3.2548   -9.9919   17.4189 C   0  0  0  0  0  0  0  0  0  0  0  0
   12.4767   -4.7393   22.1790 C   0  0  0  0  0  0  0  0  0  0  0  0
    7.8593   -5.3772   15.3569 N   0  0  0  0  0  0  0  0  0  0  0  0
    7.4412   -6.9038   16.9283 C   0  0  0  0  0  0  0  0  0  0  0  0
  1 21  4  0
  1 23  4  0
  2  5  1  0
  2 13  4  0
  2 16  4  0
  3  6  4  0
  3  7  4  0
  4 13  4  0
  4 19  4  0
  4 24  4  0
  6 23  4  0
  7 16  1  0
  7 21  4  0
  8 18  1  0
  9 20  4  0
  9 22  4  0
 10 17  1  0
 10 25  1  0
 11 16  4  0
 11 19  4  0
 12 15  4  0
 12 22  4  0
 14 24  4  0
 14 25  4  0
 15 17  4  0
 17 20  4  0
 18 23  1  0
 19 25  4  0
M  END
$$$$

 Created by Python create_sdf_string function

 25 28  0  0  0  0  0  0  0  0999 V2000
   13.1533   -5.2399   21.0682 C   0  0  0  0  0  0  0  0  0  0  0  0
   10.4729   -4.0295   17.6135 C   0  0  0  0  0  0  0  0  0  0  0  0
   10.4789   -4.3641   20.9564 C   0  0  0  0  0  0  0  0  0  0  0  0
    8.7421   -5.1412   16.3650 C   0  0  0  0  0  0  0  0  0  0  0  0
   11.4353   -2.9204   17.8044 C   0  0  0  0  0  0  0  0  0  0  0  0
   11.1529   -4.3028   22.1277 C   0  0  0  0  0  0  0  0  0  0  0  0
   11.1290   -4.8502   19.8052 C   0  0  0  0  0  0  0  0  0  0  0  0
   12.4329   -4.2159   24.4224 C   0  0  0  0  0  0  0  0  0  0  0  0
    3.4740   -9.0387   16.5022 C   0  0  0  0  0  0  0  0  0  0  0  0
    6.8384   -7.9290   17.5282 N   0  0  0  0  0  0  0  0  0  0  0  0
    9.4126   -5.9853   18.4899 C   0  0  0  0  0  0  0  0  0  0  0  0
    4.2064  -10.3242   18.3302 C   0  0  0  0  0  0  0  0  0  0  0  0
    9.6599   -4.1551   16.4796 N   0  0  0  0  0  0  0  0  0  0  0  0
    7.0644   -6.4612   15.7375 N   0  0  0  0  0  0  0  0  0  0  0  0
    5.3549   -9.6322   18.3190 C   0  0  0  0  0  0  0  0  0  0  0  0
   10.3704   -4.9638   18.6510 C   0  0  0  0  0  0  0  0  0  0  0  0
    5.5935   -8.6419   17.4234 C   0  0  0  0  0  0  0  0  0  0  0  0
   13.0726   -4.6648   23.3394 O   0  0  0  0  0  0  0  0  0  0  0  0
    8.5955   -6.0705   17.3996 C   0  0  0  0  0  0  0  0  0  0  0  0
    4.6223   -8.3832   16.5030 C   0  0  0  0  0  0  0  0  0  0  0  0
   12.4690   -5.2624   19.9024 C   0  0  0  0  0  0  0  0  0  0  0  0
    3.2548   -9.9919   17.4189 C   0  0  0  0  0  0  0  0  0  0  0  0
   12.4767   -4.7393   22.1790 C   0  0  0  0  0  0  0  0  0  0  0  0
    7.8593   -5.3772   15.3569 N   0  0  0  0  0  0  0  0  0  0  0  0
    7.4412   -6.9038   16.9283 C   0  0  0  0  0  0  0  0  0  0  0  0
  1 21  4  0
  1 23  4  0
  2  5  1  0
  2 13  4  0
  2 16  4  0
  3  6  4  0
  3  7  4  0
  4 13  4  0
  4 19  4  0
  4 24  4  0
  6 23  4  0
  7 16  1  0
  7 21  4  0
  8 18  1  0
  9 20  4  0
  9 22  4  0
 10 17  1  0
 10 25  1  0
 11 16  4  0
 11 19  4  0
 12 15  4  0
 12 22  4  0
 14 24  4  0
 14 25  4  0
 15 17  4  0
 17 20  4  0
 18 23  1  0
 19 25  4  0
M  END
$$$$

 Created by Python create_sdf_string function

 25 28  0  0  0  0  0  0  0  0999 V2000
   13.1533   -5.2399   21.0682 C   0  0  0  0  0  0  0  0  0  0  0  0
   10.4729   -4.0295   17.6135 C   0  0  0  0  0  0  0  0  0  0  0  0
   10.4789   -4.3641   20.9564 C   0  0  0  0  0  0  0  0  0  0  0  0
    8.7421   -5.1412   16.3650 C   0  0  0  0  0  0  0  0  0  0  0  0
   11.4353   -2.9204   17.8044 C   0  0  0  0  0  0  0  0  0  0  0  0
   11.1529   -4.3028   22.1277 C   0  0  0  0  0  0  0  0  0  0  0  0
   11.1290   -4.8502   19.8052 C   0  0  0  0  0  0  0  0  0  0  0  0
   12.4329   -4.2159   24.4224 C   0  0  0  0  0  0  0  0  0  0  0  0
    3.4740   -9.0387   16.5022 C   0  0  0  0  0  0  0  0  0  0  0  0
    6.8384   -7.9290   17.5282 N   0  0  0  0  0  0  0  0  0  0  0  0
    9.4126   -5.9853   18.4899 C   0  0  0  0  0  0  0  0  0  0  0  0
    4.2064  -10.3242   18.3302 C   0  0  0  0  0  0  0  0  0  0  0  0
    9.6599   -4.1551   16.4796 N   0  0  0  0  0  0  0  0  0  0  0  0
    7.0644   -6.4612   15.7375 N   0  0  0  0  0  0  0  0  0  0  0  0
    5.3549   -9.6322   18.3190 C   0  0  0  0  0  0  0  0  0  0  0  0
   10.3704   -4.9638   18.6510 C   0  0  0  0  0  0  0  0  0  0  0  0
    5.5935   -8.6419   17.4234 C   0  0  0  0  0  0  0  0  0  0  0  0
   13.0726   -4.6648   23.3394 O   0  0  0  0  0  0  0  0  0  0  0  0
    8.5955   -6.0705   17.3996 C   0  0  0  0  0  0  0  0  0  0  0  0
    4.6223   -8.3832   16.5030 C   0  0  0  0  0  0  0  0  0  0  0  0
   12.4690   -5.2624   19.9024 C   0  0  0  0  0  0  0  0  0  0  0  0
    3.2548   -9.9919   17.4189 C   0  0  0  0  0  0  0  0  0  0  0  0
   12.4767   -4.7393   22.1790 C   0  0  0  0  0  0  0  0  0  0  0  0
    7.8593   -5.3772   15.3569 N   0  0  0  0  0  0  0  0  0  0  0  0
    7.4412   -6.9038   16.9283 C   0  0  0  0  0  0  0  0  0  0  0  0
  1 21  4  0
  1 23  4  0
  2  5  1  0
  2 13  4  0
  2 16  4  0
  3  6  4  0
  3  7  4  0
  4 13  4  0
  4 19  4  0
  4 24  4  0
  6 23  4  0
  7 16  1  0
  7 21  4  0
  8 18  1  0
  9 20  4  0
  9 22  4  0
 10 17  1  0
 10 25  1  0
 11 16  4  0
 11 19  4  0
 12 15  4  0
 12 22  4  0
 14 24  4  0
 14 25  4  0
 15 17  4  0
 17 20  4  0
 18 23  1  0
 19 25  4  0
M  END
$$$$

 Created by Python create_sdf_string function

 25 28  0  0  0  0  0  0  0  0999 V2000
   13.1533   -5.2399   21.0682 C   0  0  0  0  0  0  0  0  0  0  0  0
   10.4729   -4.0295   17.6135 C   0  0  0  0  0  0  0  0  0  0  0  0
   10.4789   -4.3641   20.9564 C   0  0  0  0  0  0  0  0  0  0  0  0
    8.7421   -5.1412   16.3650 C   0  0  0  0  0  0  0  0  0  0  0  0
   11.4353   -2.9204   17.8044 C   0  0  0  0  0  0  0  0  0  0  0  0
   11.1529   -4.3028   22.1277 C   0  0  0  0  0  0  0  0  0  0  0  0
   11.1290   -4.8502   19.8052 C   0  0  0  0  0  0  0  0  0  0  0  0
   12.4329   -4.2159   24.4224 C   0  0  0  0  0  0  0  0  0  0  0  0
    3.4740   -9.0387   16.5022 C   0  0  0  0  0  0  0  0  0  0  0  0
    6.8384   -7.9290   17.5282 N   0  0  0  0  0  0  0  0  0  0  0  0
    9.4126   -5.9853   18.4899 C   0  0  0  0  0  0  0  0  0  0  0  0
    4.2064  -10.3242   18.3302 C   0  0  0  0  0  0  0  0  0  0  0  0
    9.6599   -4.1551   16.4796 N   0  0  0  0  0  0  0  0  0  0  0  0
    7.0644   -6.4612   15.7375 N   0  0  0  0  0  0  0  0  0  0  0  0
    5.3549   -9.6322   18.3190 C   0  0  0  0  0  0  0  0  0  0  0  0
   10.3704   -4.9638   18.6510 C   0  0  0  0  0  0  0  0  0  0  0  0
    5.5935   -8.6419   17.4234 C   0  0  0  0  0  0  0  0  0  0  0  0
   13.0726   -4.6648   23.3394 O   0  0  0  0  0  0  0  0  0  0  0  0
    8.5955   -6.0705   17.3996 C   0  0  0  0  0  0  0  0  0  0  0  0
    4.6223   -8.3832   16.5030 C   0  0  0  0  0  0  0  0  0  0  0  0
   12.4690   -5.2624   19.9024 C   0  0  0  0  0  0  0  0  0  0  0  0
    3.2548   -9.9919   17.4189 C   0  0  0  0  0  0  0  0  0  0  0  0
   12.4767   -4.7393   22.1790 C   0  0  0  0  0  0  0  0  0  0  0  0
    7.8593   -5.3772   15.3569 N   0  0  0  0  0  0  0  0  0  0  0  0
    7.4412   -6.9038   16.9283 C   0  0  0  0  0  0  0  0  0  0  0  0
  1 21  4  0
  1 23  4  0
  2  5  1  0
  2 13  4  0
  2 16  4  0
  3  6  4  0
  3  7  4  0
  4 13  4  0
  4 19  4  0
  4 24  4  0
  6 23  4  0
  7 16  1  0
  7 21  4  0
  8 18  1  0
  9 20  4  0
  9 22  4  0
 10 17  1  0
 10 25  1  0
 11 16  4  0
 11 19  4  0
 12 15  4  0
 12 22  4  0
 14 24  4  0
 14 25  4  0
 15 17  4  0
 17 20  4  0
 18 23  1  0
 19 25  4  0
M  END
$$$$

 Created by Python create_sdf_string function

 25 28  0  0  0  0  0  0  0  0999 V2000
   13.1533   -5.2399   21.0682 C   0  0  0  0  0  0  0  0  0  0  0  0
   10.4729   -4.0295   17.6135 C   0  0  0  0  0  0  0  0  0  0  0  0
   10.4789   -4.3641   20.9564 C   0  0  0  0  0  0  0  0  0  0  0  0
    8.7421   -5.1412   16.3650 C   0  0  0  0  0  0  0  0  0  0  0  0
   11.4353   -2.9204   17.8044 C   0  0  0  0  0  0  0  0  0  0  0  0
   11.1529   -4.3028   22.1277 C   0  0  0  0  0  0  0  0  0  0  0  0
   11.1290   -4.8502   19.8052 C   0  0  0  0  0  0  0  0  0  0  0  0
   12.4329   -4.2159   24.4224 C   0  0  0  0  0  0  0  0  0  0  0  0
    3.4740   -9.0387   16.5022 C   0  0  0  0  0  0  0  0  0  0  0  0
    6.8384   -7.9290   17.5282 N   0  0  0  0  0  0  0  0  0  0  0  0
    9.4126   -5.9853   18.4899 C   0  0  0  0  0  0  0  0  0  0  0  0
    4.2064  -10.3242   18.3302 C   0  0  0  0  0  0  0  0  0  0  0  0
    9.6599   -4.1551   16.4796 N   0  0  0  0  0  0  0  0  0  0  0  0
    7.0644   -6.4612   15.7375 N   0  0  0  0  0  0  0  0  0  0  0  0
    5.3549   -9.6322   18.3190 C   0  0  0  0  0  0  0  0  0  0  0  0
   10.3704   -4.9638   18.6510 C   0  0  0  0  0  0  0  0  0  0  0  0
    5.5935   -8.6419   17.4234 C   0  0  0  0  0  0  0  0  0  0  0  0
   13.0726   -4.6648   23.3394 O   0  0  0  0  0  0  0  0  0  0  0  0
    8.5955   -6.0705   17.3996 C   0  0  0  0  0  0  0  0  0  0  0  0
    4.6223   -8.3832   16.5030 C   0  0  0  0  0  0  0  0  0  0  0  0
   12.4690   -5.2624   19.9024 C   0  0  0  0  0  0  0  0  0  0  0  0
    3.2548   -9.9919   17.4189 C   0  0  0  0  0  0  0  0  0  0  0  0
   12.4767   -4.7393   22.1790 C   0  0  0  0  0  0  0  0  0  0  0  0
    7.8593   -5.3772   15.3569 N   0  0  0  0  0  0  0  0  0  0  0  0
    7.4412   -6.9038   16.9283 C   0  0  0  0  0  0  0  0  0  0  0  0
  1 21  4  0
  1 23  4  0
  2  5  1  0
  2 13  4  0
  2 16  4  0
  3  6  4  0
  3  7  4  0
  4 13  4  0
  4 19  4  0
  4 24  4  0
  6 23  4  0
  7 16  1  0
  7 21  4  0
  8 18  1  0
  9 20  4  0
  9 22  4  0
 10 17  1  0
 10 25  1  0
 11 16  4  0
 11 19  4  0
 12 15  4  0
 12 22  4  0
 14 24  4  0
 14 25  4  0
 15 17  4  0
 17 20  4  0
 18 23  1  0
 19 25  4  0
M  END
$$$$

 Created by Python create_sdf_string function

 25 28  0  0  0  0  0  0  0  0999 V2000
   13.1533   -5.2399   21.0682 C   0  0  0  0  0  0  0  0  0  0  0  0
   10.4729   -4.0295   17.6135 C   0  0  0  0  0  0  0  0  0  0  0  0
   10.4789   -4.3641   20.9564 C   0  0  0  0  0  0  0  0  0  0  0  0
    8.7421   -5.1412   16.3650 C   0  0  0  0  0  0  0  0  0  0  0  0
   11.4353   -2.9204   17.8044 C   0  0  0  0  0  0  0  0  0  0  0  0
   11.1529   -4.3028   22.1277 C   0  0  0  0  0  0  0  0  0  0  0  0
   11.1290   -4.8502   19.8052 C   0  0  0  0  0  0  0  0  0  0  0  0
   12.4329   -4.2159   24.4224 C   0  0  0  0  0  0  0  0  0  0  0  0
    3.4740   -9.0387   16.5022 C   0  0  0  0  0  0  0  0  0  0  0  0
    6.8384   -7.9290   17.5282 N   0  0  0  0  0  0  0  0  0  0  0  0
    9.4126   -5.9853   18.4899 C   0  0  0  0  0  0  0  0  0  0  0  0
    4.2064  -10.3242   18.3302 C   0  0  0  0  0  0  0  0  0  0  0  0
    9.6599   -4.1551   16.4796 N   0  0  0  0  0  0  0  0  0  0  0  0
    7.0644   -6.4612   15.7375 N   0  0  0  0  0  0  0  0  0  0  0  0
    5.3549   -9.6322   18.3190 C   0  0  0  0  0  0  0  0  0  0  0  0
   10.3704   -4.9638   18.6510 C   0  0  0  0  0  0  0  0  0  0  0  0
    5.5935   -8.6419   17.4234 C   0  0  0  0  0  0  0  0  0  0  0  0
   13.0726   -4.6648   23.3394 O   0  0  0  0  0  0  0  0  0  0  0  0
    8.5955   -6.0705   17.3996 C   0  0  0  0  0  0  0  0  0  0  0  0
    4.6223   -8.3832   16.5030 C   0  0  0  0  0  0  0  0  0  0  0  0
   12.4690   -5.2624   19.9024 C   0  0  0  0  0  0  0  0  0  0  0  0
    3.2548   -9.9919   17.4189 C   0  0  0  0  0  0  0  0  0  0  0  0
   12.4767   -4.7393   22.1790 C   0  0  0  0  0  0  0  0  0  0  0  0
    7.8593   -5.3772   15.3569 N   0  0  0  0  0  0  0  0  0  0  0  0
    7.4412   -6.9038   16.9283 C   0  0  0  0  0  0  0  0  0  0  0  0
  1 21  4  0
  1 23  4  0
  2  5  1  0
  2 13  4  0
  2 16  4  0
  3  6  4  0
  3  7  4  0
  4 13  4  0
  4 19  4  0
  4 24  4  0
  6 23  4  0
  7 16  1  0
  7 21  4  0
  8 18  1  0
  9 20  4  0
  9 22  4  0
 10 17  1  0
 10 25  1  0
 11 16  4  0
 11 19  4  0
 12 15  4  0
 12 22  4  0
 14 24  4  0
 14 25  4  0
 15 17  4  0
 17 20  4  0
 18 23  1  0
 19 25  4  0
M  END
$$$$

 Created by Python create_sdf_string function

 25 28  0  0  0  0  0  0  0  0999 V2000
   13.1533   -5.2399   21.0682 C   0  0  0  0  0  0  0  0  0  0  0  0
   10.4729   -4.0295   17.6135 C   0  0  0  0  0  0  0  0  0  0  0  0
   10.4789   -4.3641   20.9564 C   0  0  0  0  0  0  0  0  0  0  0  0
    8.7421   -5.1412   16.3650 C   0  0  0  0  0  0  0  0  0  0  0  0
   11.4353   -2.9204   17.8044 C   0  0  0  0  0  0  0  0  0  0  0  0
   11.1529   -4.3028   22.1277 C   0  0  0  0  0  0  0  0  0  0  0  0
   11.1290   -4.8502   19.8052 C   0  0  0  0  0  0  0  0  0  0  0  0
   12.4329   -4.2159   24.4224 C   0  0  0  0  0  0  0  0  0  0  0  0
    3.4740   -9.0387   16.5022 C   0  0  0  0  0  0  0  0  0  0  0  0
    6.8384   -7.9290   17.5282 N   0  0  0  0  0  0  0  0  0  0  0  0
    9.4126   -5.9853   18.4899 C   0  0  0  0  0  0  0  0  0  0  0  0
    4.2064  -10.3242   18.3302 C   0  0  0  0  0  0  0  0  0  0  0  0
    9.6599   -4.1551   16.4796 N   0  0  0  0  0  0  0  0  0  0  0  0
    7.0644   -6.4612   15.7375 N   0  0  0  0  0  0  0  0  0  0  0  0
    5.3549   -9.6322   18.3190 C   0  0  0  0  0  0  0  0  0  0  0  0
   10.3704   -4.9638   18.6510 C   0  0  0  0  0  0  0  0  0  0  0  0
    5.5935   -8.6419   17.4234 C   0  0  0  0  0  0  0  0  0  0  0  0
   13.0726   -4.6648   23.3394 O   0  0  0  0  0  0  0  0  0  0  0  0
    8.5955   -6.0705   17.3996 C   0  0  0  0  0  0  0  0  0  0  0  0
    4.6223   -8.3832   16.5030 C   0  0  0  0  0  0  0  0  0  0  0  0
   12.4690   -5.2624   19.9024 C   0  0  0  0  0  0  0  0  0  0  0  0
    3.2548   -9.9919   17.4189 C   0  0  0  0  0  0  0  0  0  0  0  0
   12.4767   -4.7393   22.1790 C   0  0  0  0  0  0  0  0  0  0  0  0
    7.8593   -5.3772   15.3569 N   0  0  0  0  0  0  0  0  0  0  0  0
    7.4412   -6.9038   16.9283 C   0  0  0  0  0  0  0  0  0  0  0  0
  1 21  4  0
  1 23  4  0
  2  5  1  0
  2 13  4  0
  2 16  4  0
  3  6  4  0
  3  7  4  0
  4 13  4  0
  4 19  4  0
  4 24  4  0
  6 23  4  0
  7 16  1  0
  7 21  4  0
  8 18  1  0
  9 20  4  0
  9 22  4  0
 10 17  1  0
 10 25  1  0
 11 16  4  0
 11 19  4  0
 12 15  4  0
 12 22  4  0
 14 24  4  0
 14 25  4  0
 15 17  4  0
 17 20  4  0
 18 23  1  0
 19 25  4  0
M  END
$$$$

 Created by Python create_sdf_string function

 25 28  0  0  0  0  0  0  0  0999 V2000
   13.1533   -5.2399   21.0682 C   0  0  0  0  0  0  0  0  0  0  0  0
   10.4729   -4.0295   17.6135 C   0  0  0  0  0  0  0  0  0  0  0  0
   10.4789   -4.3641   20.9564 C   0  0  0  0  0  0  0  0  0  0  0  0
    8.7421   -5.1412   16.3650 C   0  0  0  0  0  0  0  0  0  0  0  0
   11.4353   -2.9204   17.8044 C   0  0  0  0  0  0  0  0  0  0  0  0
   11.1529   -4.3028   22.1277 C   0  0  0  0  0  0  0  0  0  0  0  0
   11.1290   -4.8502   19.8052 C   0  0  0  0  0  0  0  0  0  0  0  0
   12.4329   -4.2159   24.4224 C   0  0  0  0  0  0  0  0  0  0  0  0
    3.4740   -9.0387   16.5022 C   0  0  0  0  0  0  0  0  0  0  0  0
    6.8384   -7.9290   17.5282 N   0  0  0  0  0  0  0  0  0  0  0  0
    9.4126   -5.9853   18.4899 C   0  0  0  0  0  0  0  0  0  0  0  0
    4.2064  -10.3242   18.3302 C   0  0  0  0  0  0  0  0  0  0  0  0
    9.6599   -4.1551   16.4796 N   0  0  0  0  0  0  0  0  0  0  0  0
    7.0644   -6.4612   15.7375 N   0  0  0  0  0  0  0  0  0  0  0  0
    5.3549   -9.6322   18.3190 C   0  0  0  0  0  0  0  0  0  0  0  0
   10.3704   -4.9638   18.6510 C   0  0  0  0  0  0  0  0  0  0  0  0
    5.5935   -8.6419   17.4234 C   0  0  0  0  0  0  0  0  0  0  0  0
   13.0726   -4.6648   23.3394 O   0  0  0  0  0  0  0  0  0  0  0  0
    8.5955   -6.0705   17.3996 C   0  0  0  0  0  0  0  0  0  0  0  0
    4.6223   -8.3832   16.5030 C   0  0  0  0  0  0  0  0  0  0  0  0
   12.4690   -5.2624   19.9024 C   0  0  0  0  0  0  0  0  0  0  0  0
    3.2548   -9.9919   17.4189 C   0  0  0  0  0  0  0  0  0  0  0  0
   12.4767   -4.7393   22.1790 C   0  0  0  0  0  0  0  0  0  0  0  0
    7.8593   -5.3772   15.3569 N   0  0  0  0  0  0  0  0  0  0  0  0
    7.4412   -6.9038   16.9283 C   0  0  0  0  0  0  0  0  0  0  0  0
  1 21  4  0
  1 23  4  0
  2  5  1  0
  2 13  4  0
  2 16  4  0
  3  6  4  0
  3  7  4  0
  4 13  4  0
  4 19  4  0
  4 24  4  0
  6 23  4  0
  7 16  1  0
  7 21  4  0
  8 18  1  0
  9 20  4  0
  9 22  4  0
 10 17  1  0
 10 25  1  0
 11 16  4  0
 11 19  4  0
 12 15  4  0
 12 22  4  0
 14 24  4  0
 14 25  4  0
 15 17  4  0
 17 20  4  0
 18 23  1  0
 19 25  4  0
M  END
$$$$

 Created by Python create_sdf_string function

 25 28  0  0  0  0  0  0  0  0999 V2000
   13.1533   -5.2399   21.0682 C   0  0  0  0  0  0  0  0  0  0  0  0
   10.4729   -4.0295   17.6135 C   0  0  0  0  0  0  0  0  0  0  0  0
   10.4789   -4.3641   20.9564 C   0  0  0  0  0  0  0  0  0  0  0  0
    8.7421   -5.1412   16.3650 C   0  0  0  0  0  0  0  0  0  0  0  0
   11.4353   -2.9204   17.8044 C   0  0  0  0  0  0  0  0  0  0  0  0
   11.1529   -4.3028   22.1277 C   0  0  0  0  0  0  0  0  0  0  0  0
   11.1290   -4.8502   19.8052 C   0  0  0  0  0  0  0  0  0  0  0  0
   12.4329   -4.2159   24.4224 C   0  0  0  0  0  0  0  0  0  0  0  0
    3.4740   -9.0387   16.5022 C   0  0  0  0  0  0  0  0  0  0  0  0
    6.8384   -7.9290   17.5282 N   0  0  0  0  0  0  0  0  0  0  0  0
    9.4126   -5.9853   18.4899 C   0  0  0  0  0  0  0  0  0  0  0  0
    4.2064  -10.3242   18.3302 C   0  0  0  0  0  0  0  0  0  0  0  0
    9.6599   -4.1551   16.4796 N   0  0  0  0  0  0  0  0  0  0  0  0
    7.0644   -6.4612   15.7375 N   0  0  0  0  0  0  0  0  0  0  0  0
    5.3549   -9.6322   18.3190 C   0  0  0  0  0  0  0  0  0  0  0  0
   10.3704   -4.9638   18.6510 C   0  0  0  0  0  0  0  0  0  0  0  0
    5.5935   -8.6419   17.4234 C   0  0  0  0  0  0  0  0  0  0  0  0
   13.0726   -4.6648   23.3394 O   0  0  0  0  0  0  0  0  0  0  0  0
    8.5955   -6.0705   17.3996 C   0  0  0  0  0  0  0  0  0  0  0  0
    4.6223   -8.3832   16.5030 C   0  0  0  0  0  0  0  0  0  0  0  0
   12.4690   -5.2624   19.9024 C   0  0  0  0  0  0  0  0  0  0  0  0
    3.2548   -9.9919   17.4189 C   0  0  0  0  0  0  0  0  0  0  0  0
   12.4767   -4.7393   22.1790 C   0  0  0  0  0  0  0  0  0  0  0  0
    7.8593   -5.3772   15.3569 N   0  0  0  0  0  0  0  0  0  0  0  0
    7.4412   -6.9038   16.9283 C   0  0  0  0  0  0  0  0  0  0  0  0
  1 21  4  0
  1 23  4  0
  2  5  1  0
  2 13  4  0
  2 16  4  0
  3  6  4  0
  3  7  4  0
  4 13  4  0
  4 19  4  0
  4 24  4  0
  6 23  4  0
  7 16  1  0
  7 21  4  0
  8 18  1  0
  9 20  4  0
  9 22  4  0
 10 17  1  0
 10 25  1  0
 11 16  4  0
 11 19  4  0
 12 15  4  0
 12 22  4  0
 14 24  4  0
 14 25  4  0
 15 17  4  0
 17 20  4  0
 18 23  1  0
 19 25  4  0
M  END
$$$$

 Created by Python create_sdf_string function

 25 28  0  0  0  0  0  0  0  0999 V2000
   13.1533   -5.2399   21.0682 C   0  0  0  0  0  0  0  0  0  0  0  0
   10.4729   -4.0295   17.6135 C   0  0  0  0  0  0  0  0  0  0  0  0
   10.4789   -4.3641   20.9564 C   0  0  0  0  0  0  0  0  0  0  0  0
    8.7421   -5.1412   16.3650 C   0  0  0  0  0  0  0  0  0  0  0  0
   11.4353   -2.9204   17.8044 C   0  0  0  0  0  0  0  0  0  0  0  0
   11.1529   -4.3028   22.1277 C   0  0  0  0  0  0  0  0  0  0  0  0
   11.1290   -4.8502   19.8052 C   0  0  0  0  0  0  0  0  0  0  0  0
   12.4329   -4.2159   24.4224 C   0  0  0  0  0  0  0  0  0  0  0  0
    3.4740   -9.0387   16.5022 C   0  0  0  0  0  0  0  0  0  0  0  0
    6.8384   -7.9290   17.5282 N   0  0  0  0  0  0  0  0  0  0  0  0
    9.4126   -5.9853   18.4899 C   0  0  0  0  0  0  0  0  0  0  0  0
    4.2064  -10.3242   18.3302 C   0  0  0  0  0  0  0  0  0  0  0  0
    9.6599   -4.1551   16.4796 N   0  0  0  0  0  0  0  0  0  0  0  0
    7.0644   -6.4612   15.7375 N   0  0  0  0  0  0  0  0  0  0  0  0
    5.3549   -9.6322   18.3190 C   0  0  0  0  0  0  0  0  0  0  0  0
   10.3704   -4.9638   18.6510 C   0  0  0  0  0  0  0  0  0  0  0  0
    5.5935   -8.6419   17.4234 C   0  0  0  0  0  0  0  0  0  0  0  0
   13.0726   -4.6648   23.3394 O   0  0  0  0  0  0  0  0  0  0  0  0
    8.5955   -6.0705   17.3996 C   0  0  0  0  0  0  0  0  0  0  0  0
    4.6223   -8.3832   16.5030 C   0  0  0  0  0  0  0  0  0  0  0  0
   12.4690   -5.2624   19.9024 C   0  0  0  0  0  0  0  0  0  0  0  0
    3.2548   -9.9919   17.4189 C   0  0  0  0  0  0  0  0  0  0  0  0
   12.4767   -4.7393   22.1790 C   0  0  0  0  0  0  0  0  0  0  0  0
    7.8593   -5.3772   15.3569 N   0  0  0  0  0  0  0  0  0  0  0  0
    7.4412   -6.9038   16.9283 C   0  0  0  0  0  0  0  0  0  0  0  0
  1 21  4  0
  1 23  4  0
  2  5  1  0
  2 13  4  0
  2 16  4  0
  3  6  4  0
  3  7  4  0
  4 13  4  0
  4 19  4  0
  4 24  4  0
  6 23  4  0
  7 16  1  0
  7 21  4  0
  8 18  1  0
  9 20  4  0
  9 22  4  0
 10 17  1  0
 10 25  1  0
 11 16  4  0
 11 19  4  0
 12 15  4  0
 12 22  4  0
 14 24  4  0
 14 25  4  0
 15 17  4  0
 17 20  4  0
 18 23  1  0
 19 25  4  0
M  END
$$$$

 Created by Python create_sdf_string function

 25 28  0  0  0  0  0  0  0  0999 V2000
   13.1533   -5.2399   21.0682 C   0  0  0  0  0  0  0  0  0  0  0  0
   10.4729   -4.0295   17.6135 C   0  0  0  0  0  0  0  0  0  0  0  0
   10.4789   -4.3641   20.9564 C   0  0  0  0  0  0  0  0  0  0  0  0
    8.7421   -5.1412   16.3650 C   0  0  0  0  0  0  0  0  0  0  0  0
   11.4353   -2.9204   17.8044 C   0  0  0  0  0  0  0  0  0  0  0  0
   11.1529   -4.3028   22.1277 C   0  0  0  0  0  0  0  0  0  0  0  0
   11.1290   -4.8502   19.8052 C   0  0  0  0  0  0  0  0  0  0  0  0
   12.4329   -4.2159   24.4224 C   0  0  0  0  0  0  0  0  0  0  0  0
    3.4740   -9.0387   16.5022 C   0  0  0  0  0  0  0  0  0  0  0  0
    6.8384   -7.9290   17.5282 N   0  0  0  0  0  0  0  0  0  0  0  0
    9.4126   -5.9853   18.4899 C   0  0  0  0  0  0  0  0  0  0  0  0
    4.2064  -10.3242   18.3302 C   0  0  0  0  0  0  0  0  0  0  0  0
    9.6599   -4.1551   16.4796 N   0  0  0  0  0  0  0  0  0  0  0  0
    7.0644   -6.4612   15.7375 N   0  0  0  0  0  0  0  0  0  0  0  0
    5.3549   -9.6322   18.3190 C   0  0  0  0  0  0  0  0  0  0  0  0
   10.3704   -4.9638   18.6510 C   0  0  0  0  0  0  0  0  0  0  0  0
    5.5935   -8.6419   17.4234 C   0  0  0  0  0  0  0  0  0  0  0  0
   13.0726   -4.6648   23.3394 O   0  0  0  0  0  0  0  0  0  0  0  0
    8.5955   -6.0705   17.3996 C   0  0  0  0  0  0  0  0  0  0  0  0
    4.6223   -8.3832   16.5030 C   0  0  0  0  0  0  0  0  0  0  0  0
   12.4690   -5.2624   19.9024 C   0  0  0  0  0  0  0  0  0  0  0  0
    3.2548   -9.9919   17.4189 C   0  0  0  0  0  0  0  0  0  0  0  0
   12.4767   -4.7393   22.1790 C   0  0  0  0  0  0  0  0  0  0  0  0
    7.8593   -5.3772   15.3569 N   0  0  0  0  0  0  0  0  0  0  0  0
    7.4412   -6.9038   16.9283 C   0  0  0  0  0  0  0  0  0  0  0  0
  1 21  4  0
  1 23  4  0
  2  5  1  0
  2 13  4  0
  2 16  4  0
  3  6  4  0
  3  7  4  0
  4 13  4  0
  4 19  4  0
  4 24  4  0
  6 23  4  0
  7 16  1  0
  7 21  4  0
  8 18  1  0
  9 20  4  0
  9 22  4  0
 10 17  1  0
 10 25  1  0
 11 16  4  0
 11 19  4  0
 12 15  4  0
 12 22  4  0
 14 24  4  0
 14 25  4  0
 15 17  4  0
 17 20  4  0
 18 23  1  0
 19 25  4  0
M  END
$$$$

 Created by Python create_sdf_string function

 25 28  0  0  0  0  0  0  0  0999 V2000
   13.1533   -5.2399   21.0682 C   0  0  0  0  0  0  0  0  0  0  0  0
   10.4729   -4.0295   17.6135 C   0  0  0  0  0  0  0  0  0  0  0  0
   10.4789   -4.3641   20.9564 C   0  0  0  0  0  0  0  0  0  0  0  0
    8.7421   -5.1412   16.3650 C   0  0  0  0  0  0  0  0  0  0  0  0
   11.4353   -2.9204   17.8044 C   0  0  0  0  0  0  0  0  0  0  0  0
   11.1529   -4.3028   22.1277 C   0  0  0  0  0  0  0  0  0  0  0  0
   11.1290   -4.8502   19.8052 C   0  0  0  0  0  0  0  0  0  0  0  0
   12.4329   -4.2159   24.4224 C   0  0  0  0  0  0  0  0  0  0  0  0
    3.4740   -9.0387   16.5022 C   0  0  0  0  0  0  0  0  0  0  0  0
    6.8384   -7.9290   17.5282 N   0  0  0  0  0  0  0  0  0  0  0  0
    9.4126   -5.9853   18.4899 C   0  0  0  0  0  0  0  0  0  0  0  0
    4.2064  -10.3242   18.3302 C   0  0  0  0  0  0  0  0  0  0  0  0
    9.6599   -4.1551   16.4796 N   0  0  0  0  0  0  0  0  0  0  0  0
    7.0644   -6.4612   15.7375 N   0  0  0  0  0  0  0  0  0  0  0  0
    5.3549   -9.6322   18.3190 C   0  0  0  0  0  0  0  0  0  0  0  0
   10.3704   -4.9638   18.6510 C   0  0  0  0  0  0  0  0  0  0  0  0
    5.5935   -8.6419   17.4234 C   0  0  0  0  0  0  0  0  0  0  0  0
   13.0726   -4.6648   23.3394 O   0  0  0  0  0  0  0  0  0  0  0  0
    8.5955   -6.0705   17.3996 C   0  0  0  0  0  0  0  0  0  0  0  0
    4.6223   -8.3832   16.5030 C   0  0  0  0  0  0  0  0  0  0  0  0
   12.4690   -5.2624   19.9024 C   0  0  0  0  0  0  0  0  0  0  0  0
    3.2548   -9.9919   17.4189 C   0  0  0  0  0  0  0  0  0  0  0  0
   12.4767   -4.7393   22.1790 C   0  0  0  0  0  0  0  0  0  0  0  0
    7.8593   -5.3772   15.3569 N   0  0  0  0  0  0  0  0  0  0  0  0
    7.4412   -6.9038   16.9283 C   0  0  0  0  0  0  0  0  0  0  0  0
  1 21  4  0
  1 23  4  0
  2  5  1  0
  2 13  4  0
  2 16  4  0
  3  6  4  0
  3  7  4  0
  4 13  4  0
  4 19  4  0
  4 24  4  0
  6 23  4  0
  7 16  1  0
  7 21  4  0
  8 18  1  0
  9 20  4  0
  9 22  4  0
 10 17  1  0
 10 25  1  0
 11 16  4  0
 11 19  4  0
 12 15  4  0
 12 22  4  0
 14 24  4  0
 14 25  4  0
 15 17  4  0
 17 20  4  0
 18 23  1  0
 19 25  4  0
M  END
$$$$

 Created by Python create_sdf_string function

 25 28  0  0  0  0  0  0  0  0999 V2000
   13.1533   -5.2399   21.0682 C   0  0  0  0  0  0  0  0  0  0  0  0
   10.4729   -4.0295   17.6135 C   0  0  0  0  0  0  0  0  0  0  0  0
   10.4789   -4.3641   20.9564 C   0  0  0  0  0  0  0  0  0  0  0  0
    8.7421   -5.1412   16.3650 C   0  0  0  0  0  0  0  0  0  0  0  0
   11.4353   -2.9204   17.8044 C   0  0  0  0  0  0  0  0  0  0  0  0
   11.1529   -4.3028   22.1277 C   0  0  0  0  0  0  0  0  0  0  0  0
   11.1290   -4.8502   19.8052 C   0  0  0  0  0  0  0  0  0  0  0  0
   12.4329   -4.2159   24.4224 C   0  0  0  0  0  0  0  0  0  0  0  0
    3.4740   -9.0387   16.5022 C   0  0  0  0  0  0  0  0  0  0  0  0
    6.8384   -7.9290   17.5282 N   0  0  0  0  0  0  0  0  0  0  0  0
    9.4126   -5.9853   18.4899 C   0  0  0  0  0  0  0  0  0  0  0  0
    4.2064  -10.3242   18.3302 C   0  0  0  0  0  0  0  0  0  0  0  0
    9.6599   -4.1551   16.4796 N   0  0  0  0  0  0  0  0  0  0  0  0
    7.0644   -6.4612   15.7375 N   0  0  0  0  0  0  0  0  0  0  0  0
    5.3549   -9.6322   18.3190 C   0  0  0  0  0  0  0  0  0  0  0  0
   10.3704   -4.9638   18.6510 C   0  0  0  0  0  0  0  0  0  0  0  0
    5.5935   -8.6419   17.4234 C   0  0  0  0  0  0  0  0  0  0  0  0
   13.0726   -4.6648   23.3394 O   0  0  0  0  0  0  0  0  0  0  0  0
    8.5955   -6.0705   17.3996 C   0  0  0  0  0  0  0  0  0  0  0  0
    4.6223   -8.3832   16.5030 C   0  0  0  0  0  0  0  0  0  0  0  0
   12.4690   -5.2624   19.9024 C   0  0  0  0  0  0  0  0  0  0  0  0
    3.2548   -9.9919   17.4189 C   0  0  0  0  0  0  0  0  0  0  0  0
   12.4767   -4.7393   22.1790 C   0  0  0  0  0  0  0  0  0  0  0  0
    7.8593   -5.3772   15.3569 N   0  0  0  0  0  0  0  0  0  0  0  0
    7.4412   -6.9038   16.9283 C   0  0  0  0  0  0  0  0  0  0  0  0
  1 21  4  0
  1 23  4  0
  2  5  1  0
  2 13  4  0
  2 16  4  0
  3  6  4  0
  3  7  4  0
  4 13  4  0
  4 19  4  0
  4 24  4  0
  6 23  4  0
  7 16  1  0
  7 21  4  0
  8 18  1  0
  9 20  4  0
  9 22  4  0
 10 17  1  0
 10 25  1  0
 11 16  4  0
 11 19  4  0
 12 15  4  0
 12 22  4  0
 14 24  4  0
 14 25  4  0
 15 17  4  0
 17 20  4  0
 18 23  1  0
 19 25  4  0
M  END
$$$$

 Created by Python create_sdf_string function

 25 28  0  0  0  0  0  0  0  0999 V2000
   13.1533   -5.2399   21.0682 C   0  0  0  0  0  0  0  0  0  0  0  0
   10.4729   -4.0295   17.6135 C   0  0  0  0  0  0  0  0  0  0  0  0
   10.4789   -4.3641   20.9564 C   0  0  0  0  0  0  0  0  0  0  0  0
    8.7421   -5.1412   16.3650 C   0  0  0  0  0  0  0  0  0  0  0  0
   11.4353   -2.9204   17.8044 C   0  0  0  0  0  0  0  0  0  0  0  0
   11.1529   -4.3028   22.1277 C   0  0  0  0  0  0  0  0  0  0  0  0
   11.1290   -4.8502   19.8052 C   0  0  0  0  0  0  0  0  0  0  0  0
   12.4329   -4.2159   24.4224 C   0  0  0  0  0  0  0  0  0  0  0  0
    3.4740   -9.0387   16.5022 C   0  0  0  0  0  0  0  0  0  0  0  0
    6.8384   -7.9290   17.5282 N   0  0  0  0  0  0  0  0  0  0  0  0
    9.4126   -5.9853   18.4899 C   0  0  0  0  0  0  0  0  0  0  0  0
    4.2064  -10.3242   18.3302 C   0  0  0  0  0  0  0  0  0  0  0  0
    9.6599   -4.1551   16.4796 N   0  0  0  0  0  0  0  0  0  0  0  0
    7.0644   -6.4612   15.7375 N   0  0  0  0  0  0  0  0  0  0  0  0
    5.3549   -9.6322   18.3190 C   0  0  0  0  0  0  0  0  0  0  0  0
   10.3704   -4.9638   18.6510 C   0  0  0  0  0  0  0  0  0  0  0  0
    5.5935   -8.6419   17.4234 C   0  0  0  0  0  0  0  0  0  0  0  0
   13.0726   -4.6648   23.3394 O   0  0  0  0  0  0  0  0  0  0  0  0
    8.5955   -6.0705   17.3996 C   0  0  0  0  0  0  0  0  0  0  0  0
    4.6223   -8.3832   16.5030 C   0  0  0  0  0  0  0  0  0  0  0  0
   12.4690   -5.2624   19.9024 C   0  0  0  0  0  0  0  0  0  0  0  0
    3.2548   -9.9919   17.4189 C   0  0  0  0  0  0  0  0  0  0  0  0
   12.4767   -4.7393   22.1790 C   0  0  0  0  0  0  0  0  0  0  0  0
    7.8593   -5.3772   15.3569 N   0  0  0  0  0  0  0  0  0  0  0  0
    7.4412   -6.9038   16.9283 C   0  0  0  0  0  0  0  0  0  0  0  0
  1 21  4  0
  1 23  4  0
  2  5  1  0
  2 13  4  0
  2 16  4  0
  3  6  4  0
  3  7  4  0
  4 13  4  0
  4 19  4  0
  4 24  4  0
  6 23  4  0
  7 16  1  0
  7 21  4  0
  8 18  1  0
  9 20  4  0
  9 22  4  0
 10 17  1  0
 10 25  1  0
 11 16  4  0
 11 19  4  0
 12 15  4  0
 12 22  4  0
 14 24  4  0
 14 25  4  0
 15 17  4  0
 17 20  4  0
 18 23  1  0
 19 25  4  0
M  END
$$$$

 Created by Python create_sdf_string function

 25 28  0  0  0  0  0  0  0  0999 V2000
   13.1533   -5.2399   21.0682 C   0  0  0  0  0  0  0  0  0  0  0  0
   10.4729   -4.0295   17.6135 C   0  0  0  0  0  0  0  0  0  0  0  0
   10.4789   -4.3641   20.9564 C   0  0  0  0  0  0  0  0  0  0  0  0
    8.7421   -5.1412   16.3650 C   0  0  0  0  0  0  0  0  0  0  0  0
   11.4353   -2.9204   17.8044 C   0  0  0  0  0  0  0  0  0  0  0  0
   11.1529   -4.3028   22.1277 C   0  0  0  0  0  0  0  0  0  0  0  0
   11.1290   -4.8502   19.8052 C   0  0  0  0  0  0  0  0  0  0  0  0
   12.4329   -4.2159   24.4224 C   0  0  0  0  0  0  0  0  0  0  0  0
    3.4740   -9.0387   16.5022 C   0  0  0  0  0  0  0  0  0  0  0  0
    6.8384   -7.9290   17.5282 N   0  0  0  0  0  0  0  0  0  0  0  0
    9.4126   -5.9853   18.4899 C   0  0  0  0  0  0  0  0  0  0  0  0
    4.2064  -10.3242   18.3302 C   0  0  0  0  0  0  0  0  0  0  0  0
    9.6599   -4.1551   16.4796 N   0  0  0  0  0  0  0  0  0  0  0  0
    7.0644   -6.4612   15.7375 N   0  0  0  0  0  0  0  0  0  0  0  0
    5.3549   -9.6322   18.3190 C   0  0  0  0  0  0  0  0  0  0  0  0
   10.3704   -4.9638   18.6510 C   0  0  0  0  0  0  0  0  0  0  0  0
    5.5935   -8.6419   17.4234 C   0  0  0  0  0  0  0  0  0  0  0  0
   13.0726   -4.6648   23.3394 O   0  0  0  0  0  0  0  0  0  0  0  0
    8.5955   -6.0705   17.3996 C   0  0  0  0  0  0  0  0  0  0  0  0
    4.6223   -8.3832   16.5030 C   0  0  0  0  0  0  0  0  0  0  0  0
   12.4690   -5.2624   19.9024 C   0  0  0  0  0  0  0  0  0  0  0  0
    3.2548   -9.9919   17.4189 C   0  0  0  0  0  0  0  0  0  0  0  0
   12.4767   -4.7393   22.1790 C   0  0  0  0  0  0  0  0  0  0  0  0
    7.8593   -5.3772   15.3569 N   0  0  0  0  0  0  0  0  0  0  0  0
    7.4412   -6.9038   16.9283 C   0  0  0  0  0  0  0  0  0  0  0  0
  1 21  4  0
  1 23  4  0
  2  5  1  0
  2 13  4  0
  2 16  4  0
  3  6  4  0
  3  7  4  0
  4 13  4  0
  4 19  4  0
  4 24  4  0
  6 23  4  0
  7 16  1  0
  7 21  4  0
  8 18  1  0
  9 20  4  0
  9 22  4  0
 10 17  1  0
 10 25  1  0
 11 16  4  0
 11 19  4  0
 12 15  4  0
 12 22  4  0
 14 24  4  0
 14 25  4  0
 15 17  4  0
 17 20  4  0
 18 23  1  0
 19 25  4  0
M  END
$$$$

 Created by Python create_sdf_string function

 25 28  0  0  0  0  0  0  0  0999 V2000
   13.1533   -5.2399   21.0682 C   0  0  0  0  0  0  0  0  0  0  0  0
   10.4729   -4.0295   17.6135 C   0  0  0  0  0  0  0  0  0  0  0  0
   10.4789   -4.3641   20.9564 C   0  0  0  0  0  0  0  0  0  0  0  0
    8.7421   -5.1412   16.3650 C   0  0  0  0  0  0  0  0  0  0  0  0
   11.4353   -2.9204   17.8044 C   0  0  0  0  0  0  0  0  0  0  0  0
   11.1529   -4.3028   22.1277 C   0  0  0  0  0  0  0  0  0  0  0  0
   11.1290   -4.8502   19.8052 C   0  0  0  0  0  0  0  0  0  0  0  0
   12.4329   -4.2159   24.4224 C   0  0  0  0  0  0  0  0  0  0  0  0
    3.4740   -9.0387   16.5022 C   0  0  0  0  0  0  0  0  0  0  0  0
    6.8384   -7.9290   17.5282 N   0  0  0  0  0  0  0  0  0  0  0  0
    9.4126   -5.9853   18.4899 C   0  0  0  0  0  0  0  0  0  0  0  0
    4.2064  -10.3242   18.3302 C   0  0  0  0  0  0  0  0  0  0  0  0
    9.6599   -4.1551   16.4796 N   0  0  0  0  0  0  0  0  0  0  0  0
    7.0644   -6.4612   15.7375 N   0  0  0  0  0  0  0  0  0  0  0  0
    5.3549   -9.6322   18.3190 C   0  0  0  0  0  0  0  0  0  0  0  0
   10.3704   -4.9638   18.6510 C   0  0  0  0  0  0  0  0  0  0  0  0
    5.5935   -8.6419   17.4234 C   0  0  0  0  0  0  0  0  0  0  0  0
   13.0726   -4.6648   23.3394 O   0  0  0  0  0  0  0  0  0  0  0  0
    8.5955   -6.0705   17.3996 C   0  0  0  0  0  0  0  0  0  0  0  0
    4.6223   -8.3832   16.5030 C   0  0  0  0  0  0  0  0  0  0  0  0
   12.4690   -5.2624   19.9024 C   0  0  0  0  0  0  0  0  0  0  0  0
    3.2548   -9.9919   17.4189 C   0  0  0  0  0  0  0  0  0  0  0  0
   12.4767   -4.7393   22.1790 C   0  0  0  0  0  0  0  0  0  0  0  0
    7.8593   -5.3772   15.3569 N   0  0  0  0  0  0  0  0  0  0  0  0
    7.4412   -6.9038   16.9283 C   0  0  0  0  0  0  0  0  0  0  0  0
  1 21  4  0
  1 23  4  0
  2  5  1  0
  2 13  4  0
  2 16  4  0
  3  6  4  0
  3  7  4  0
  4 13  4  0
  4 19  4  0
  4 24  4  0
  6 23  4  0
  7 16  1  0
  7 21  4  0
  8 18  1  0
  9 20  4  0
  9 22  4  0
 10 17  1  0
 10 25  1  0
 11 16  4  0
 11 19  4  0
 12 15  4  0
 12 22  4  0
 14 24  4  0
 14 25  4  0
 15 17  4  0
 17 20  4  0
 18 23  1  0
 19 25  4  0
M  END
$$$$

 Created by Python create_sdf_string function

 25 28  0  0  0  0  0  0  0  0999 V2000
   13.1533   -5.2399   21.0682 C   0  0  0  0  0  0  0  0  0  0  0  0
   10.4729   -4.0295   17.6135 C   0  0  0  0  0  0  0  0  0  0  0  0
   10.4789   -4.3641   20.9564 C   0  0  0  0  0  0  0  0  0  0  0  0
    8.7421   -5.1412   16.3650 C   0  0  0  0  0  0  0  0  0  0  0  0
   11.4353   -2.9204   17.8044 C   0  0  0  0  0  0  0  0  0  0  0  0
   11.1529   -4.3028   22.1277 C   0  0  0  0  0  0  0  0  0  0  0  0
   11.1290   -4.8502   19.8052 C   0  0  0  0  0  0  0  0  0  0  0  0
   12.4329   -4.2159   24.4224 C   0  0  0  0  0  0  0  0  0  0  0  0
    3.4740   -9.0387   16.5022 C   0  0  0  0  0  0  0  0  0  0  0  0
    6.8384   -7.9290   17.5282 N   0  0  0  0  0  0  0  0  0  0  0  0
    9.4126   -5.9853   18.4899 C   0  0  0  0  0  0  0  0  0  0  0  0
    4.2064  -10.3242   18.3302 C   0  0  0  0  0  0  0  0  0  0  0  0
    9.6599   -4.1551   16.4796 N   0  0  0  0  0  0  0  0  0  0  0  0
    7.0644   -6.4612   15.7375 N   0  0  0  0  0  0  0  0  0  0  0  0
    5.3549   -9.6322   18.3190 C   0  0  0  0  0  0  0  0  0  0  0  0
   10.3704   -4.9638   18.6510 C   0  0  0  0  0  0  0  0  0  0  0  0
    5.5935   -8.6419   17.4234 C   0  0  0  0  0  0  0  0  0  0  0  0
   13.0726   -4.6648   23.3394 O   0  0  0  0  0  0  0  0  0  0  0  0
    8.5955   -6.0705   17.3996 C   0  0  0  0  0  0  0  0  0  0  0  0
    4.6223   -8.3832   16.5030 C   0  0  0  0  0  0  0  0  0  0  0  0
   12.4690   -5.2624   19.9024 C   0  0  0  0  0  0  0  0  0  0  0  0
    3.2548   -9.9919   17.4189 C   0  0  0  0  0  0  0  0  0  0  0  0
   12.4767   -4.7393   22.1790 C   0  0  0  0  0  0  0  0  0  0  0  0
    7.8593   -5.3772   15.3569 N   0  0  0  0  0  0  0  0  0  0  0  0
    7.4412   -6.9038   16.9283 C   0  0  0  0  0  0  0  0  0  0  0  0
  1 21  4  0
  1 23  4  0
  2  5  1  0
  2 13  4  0
  2 16  4  0
  3  6  4  0
  3  7  4  0
  4 13  4  0
  4 19  4  0
  4 24  4  0
  6 23  4  0
  7 16  1  0
  7 21  4  0
  8 18  1  0
  9 20  4  0
  9 22  4  0
 10 17  1  0
 10 25  1  0
 11 16  4  0
 11 19  4  0
 12 15  4  0
 12 22  4  0
 14 24  4  0
 14 25  4  0
 15 17  4  0
 17 20  4  0
 18 23  1  0
 19 25  4  0
M  END
$$$$

 Created by Python create_sdf_string function

 25 28  0  0  0  0  0  0  0  0999 V2000
   13.1533   -5.2399   21.0682 C   0  0  0  0  0  0  0  0  0  0  0  0
   10.4729   -4.0295   17.6135 C   0  0  0  0  0  0  0  0  0  0  0  0
   10.4789   -4.3641   20.9564 C   0  0  0  0  0  0  0  0  0  0  0  0
    8.7421   -5.1412   16.3650 C   0  0  0  0  0  0  0  0  0  0  0  0
   11.4353   -2.9204   17.8044 C   0  0  0  0  0  0  0  0  0  0  0  0
   11.1529   -4.3028   22.1277 C   0  0  0  0  0  0  0  0  0  0  0  0
   11.1290   -4.8502   19.8052 C   0  0  0  0  0  0  0  0  0  0  0  0
   12.4329   -4.2159   24.4224 C   0  0  0  0  0  0  0  0  0  0  0  0
    3.4740   -9.0387   16.5022 C   0  0  0  0  0  0  0  0  0  0  0  0
    6.8384   -7.9290   17.5282 N   0  0  0  0  0  0  0  0  0  0  0  0
    9.4126   -5.9853   18.4899 C   0  0  0  0  0  0  0  0  0  0  0  0
    4.2064  -10.3242   18.3302 C   0  0  0  0  0  0  0  0  0  0  0  0
    9.6599   -4.1551   16.4796 N   0  0  0  0  0  0  0  0  0  0  0  0
    7.0644   -6.4612   15.7375 N   0  0  0  0  0  0  0  0  0  0  0  0
    5.3549   -9.6322   18.3190 C   0  0  0  0  0  0  0  0  0  0  0  0
   10.3704   -4.9638   18.6510 C   0  0  0  0  0  0  0  0  0  0  0  0
    5.5935   -8.6419   17.4234 C   0  0  0  0  0  0  0  0  0  0  0  0
   13.0726   -4.6648   23.3394 O   0  0  0  0  0  0  0  0  0  0  0  0
    8.5955   -6.0705   17.3996 C   0  0  0  0  0  0  0  0  0  0  0  0
    4.6223   -8.3832   16.5030 C   0  0  0  0  0  0  0  0  0  0  0  0
   12.4690   -5.2624   19.9024 C   0  0  0  0  0  0  0  0  0  0  0  0
    3.2548   -9.9919   17.4189 C   0  0  0  0  0  0  0  0  0  0  0  0
   12.4767   -4.7393   22.1790 C   0  0  0  0  0  0  0  0  0  0  0  0
    7.8593   -5.3772   15.3569 N   0  0  0  0  0  0  0  0  0  0  0  0
    7.4412   -6.9038   16.9283 C   0  0  0  0  0  0  0  0  0  0  0  0
  1 21  4  0
  1 23  4  0
  2  5  1  0
  2 13  4  0
  2 16  4  0
  3  6  4  0
  3  7  4  0
  4 13  4  0
  4 19  4  0
  4 24  4  0
  6 23  4  0
  7 16  1  0
  7 21  4  0
  8 18  1  0
  9 20  4  0
  9 22  4  0
 10 17  1  0
 10 25  1  0
 11 16  4  0
 11 19  4  0
 12 15  4  0
 12 22  4  0
 14 24  4  0
 14 25  4  0
 15 17  4  0
 17 20  4  0
 18 23  1  0
 19 25  4  0
M  END
$$$$

 Created by Python create_sdf_string function

 25 28  0  0  0  0  0  0  0  0999 V2000
   13.1533   -5.2399   21.0682 C   0  0  0  0  0  0  0  0  0  0  0  0
   10.4729   -4.0295   17.6135 C   0  0  0  0  0  0  0  0  0  0  0  0
   10.4789   -4.3641   20.9564 C   0  0  0  0  0  0  0  0  0  0  0  0
    8.7421   -5.1412   16.3650 C   0  0  0  0  0  0  0  0  0  0  0  0
   11.4353   -2.9204   17.8044 C   0  0  0  0  0  0  0  0  0  0  0  0
   11.1529   -4.3028   22.1277 C   0  0  0  0  0  0  0  0  0  0  0  0
   11.1290   -4.8502   19.8052 C   0  0  0  0  0  0  0  0  0  0  0  0
   12.4329   -4.2159   24.4224 C   0  0  0  0  0  0  0  0  0  0  0  0
    3.4740   -9.0387   16.5022 C   0  0  0  0  0  0  0  0  0  0  0  0
    6.8384   -7.9290   17.5282 N   0  0  0  0  0  0  0  0  0  0  0  0
    9.4126   -5.9853   18.4899 C   0  0  0  0  0  0  0  0  0  0  0  0
    4.2064  -10.3242   18.3302 C   0  0  0  0  0  0  0  0  0  0  0  0
    9.6599   -4.1551   16.4796 N   0  0  0  0  0  0  0  0  0  0  0  0
    7.0644   -6.4612   15.7375 N   0  0  0  0  0  0  0  0  0  0  0  0
    5.3549   -9.6322   18.3190 C   0  0  0  0  0  0  0  0  0  0  0  0
   10.3704   -4.9638   18.6510 C   0  0  0  0  0  0  0  0  0  0  0  0
    5.5935   -8.6419   17.4234 C   0  0  0  0  0  0  0  0  0  0  0  0
   13.0726   -4.6648   23.3394 O   0  0  0  0  0  0  0  0  0  0  0  0
    8.5955   -6.0705   17.3996 C   0  0  0  0  0  0  0  0  0  0  0  0
    4.6223   -8.3832   16.5030 C   0  0  0  0  0  0  0  0  0  0  0  0
   12.4690   -5.2624   19.9024 C   0  0  0  0  0  0  0  0  0  0  0  0
    3.2548   -9.9919   17.4189 C   0  0  0  0  0  0  0  0  0  0  0  0
   12.4767   -4.7393   22.1790 C   0  0  0  0  0  0  0  0  0  0  0  0
    7.8593   -5.3772   15.3569 N   0  0  0  0  0  0  0  0  0  0  0  0
    7.4412   -6.9038   16.9283 C   0  0  0  0  0  0  0  0  0  0  0  0
  1 21  4  0
  1 23  4  0
  2  5  1  0
  2 13  4  0
  2 16  4  0
  3  6  4  0
  3  7  4  0
  4 13  4  0
  4 19  4  0
  4 24  4  0
  6 23  4  0
  7 16  1  0
  7 21  4  0
  8 18  1  0
  9 20  4  0
  9 22  4  0
 10 17  1  0
 10 25  1  0
 11 16  4  0
 11 19  4  0
 12 15  4  0
 12 22  4  0
 14 24  4  0
 14 25  4  0
 15 17  4  0
 17 20  4  0
 18 23  1  0
 19 25  4  0
M  END
$$$$

 Created by Python create_sdf_string function

 25 28  0  0  0  0  0  0  0  0999 V2000
   13.1533   -5.2399   21.0682 C   0  0  0  0  0  0  0  0  0  0  0  0
   10.4729   -4.0295   17.6135 C   0  0  0  0  0  0  0  0  0  0  0  0
   10.4789   -4.3641   20.9564 C   0  0  0  0  0  0  0  0  0  0  0  0
    8.7421   -5.1412   16.3650 C   0  0  0  0  0  0  0  0  0  0  0  0
   11.4353   -2.9204   17.8044 C   0  0  0  0  0  0  0  0  0  0  0  0
   11.1529   -4.3028   22.1277 C   0  0  0  0  0  0  0  0  0  0  0  0
   11.1290   -4.8502   19.8052 C   0  0  0  0  0  0  0  0  0  0  0  0
   12.4329   -4.2159   24.4224 C   0  0  0  0  0  0  0  0  0  0  0  0
    3.4740   -9.0387   16.5022 C   0  0  0  0  0  0  0  0  0  0  0  0
    6.8384   -7.9290   17.5282 N   0  0  0  0  0  0  0  0  0  0  0  0
    9.4126   -5.9853   18.4899 C   0  0  0  0  0  0  0  0  0  0  0  0
    4.2064  -10.3242   18.3302 C   0  0  0  0  0  0  0  0  0  0  0  0
    9.6599   -4.1551   16.4796 N   0  0  0  0  0  0  0  0  0  0  0  0
    7.0644   -6.4612   15.7375 N   0  0  0  0  0  0  0  0  0  0  0  0
    5.3549   -9.6322   18.3190 C   0  0  0  0  0  0  0  0  0  0  0  0
   10.3704   -4.9638   18.6510 C   0  0  0  0  0  0  0  0  0  0  0  0
    5.5935   -8.6419   17.4234 C   0  0  0  0  0  0  0  0  0  0  0  0
   13.0726   -4.6648   23.3394 O   0  0  0  0  0  0  0  0  0  0  0  0
    8.5955   -6.0705   17.3996 C   0  0  0  0  0  0  0  0  0  0  0  0
    4.6223   -8.3832   16.5030 C   0  0  0  0  0  0  0  0  0  0  0  0
   12.4690   -5.2624   19.9024 C   0  0  0  0  0  0  0  0  0  0  0  0
    3.2548   -9.9919   17.4189 C   0  0  0  0  0  0  0  0  0  0  0  0
   12.4767   -4.7393   22.1790 C   0  0  0  0  0  0  0  0  0  0  0  0
    7.8593   -5.3772   15.3569 N   0  0  0  0  0  0  0  0  0  0  0  0
    7.4412   -6.9038   16.9283 C   0  0  0  0  0  0  0  0  0  0  0  0
  1 21  4  0
  1 23  4  0
  2  5  1  0
  2 13  4  0
  2 16  4  0
  3  6  4  0
  3  7  4  0
  4 13  4  0
  4 19  4  0
  4 24  4  0
  6 23  4  0
  7 16  1  0
  7 21  4  0
  8 18  1  0
  9 20  4  0
  9 22  4  0
 10 17  1  0
 10 25  1  0
 11 16  4  0
 11 19  4  0
 12 15  4  0
 12 22  4  0
 14 24  4  0
 14 25  4  0
 15 17  4  0
 17 20  4  0
 18 23  1  0
 19 25  4  0
M  END
$$$$

 Created by Python create_sdf_string function

 25 28  0  0  0  0  0  0  0  0999 V2000
   13.1533   -5.2399   21.0682 C   0  0  0  0  0  0  0  0  0  0  0  0
   10.4729   -4.0295   17.6135 C   0  0  0  0  0  0  0  0  0  0  0  0
   10.4789   -4.3641   20.9564 C   0  0  0  0  0  0  0  0  0  0  0  0
    8.7421   -5.1412   16.3650 C   0  0  0  0  0  0  0  0  0  0  0  0
   11.4353   -2.9204   17.8044 C   0  0  0  0  0  0  0  0  0  0  0  0
   11.1529   -4.3028   22.1277 C   0  0  0  0  0  0  0  0  0  0  0  0
   11.1290   -4.8502   19.8052 C   0  0  0  0  0  0  0  0  0  0  0  0
   12.4329   -4.2159   24.4224 C   0  0  0  0  0  0  0  0  0  0  0  0
    3.4740   -9.0387   16.5022 C   0  0  0  0  0  0  0  0  0  0  0  0
    6.8384   -7.9290   17.5282 N   0  0  0  0  0  0  0  0  0  0  0  0
    9.4126   -5.9853   18.4899 C   0  0  0  0  0  0  0  0  0  0  0  0
    4.2064  -10.3242   18.3302 C   0  0  0  0  0  0  0  0  0  0  0  0
    9.6599   -4.1551   16.4796 N   0  0  0  0  0  0  0  0  0  0  0  0
    7.0644   -6.4612   15.7375 N   0  0  0  0  0  0  0  0  0  0  0  0
    5.3549   -9.6322   18.3190 C   0  0  0  0  0  0  0  0  0  0  0  0
   10.3704   -4.9638   18.6510 C   0  0  0  0  0  0  0  0  0  0  0  0
    5.5935   -8.6419   17.4234 C   0  0  0  0  0  0  0  0  0  0  0  0
   13.0726   -4.6648   23.3394 O   0  0  0  0  0  0  0  0  0  0  0  0
    8.5955   -6.0705   17.3996 C   0  0  0  0  0  0  0  0  0  0  0  0
    4.6223   -8.3832   16.5030 C   0  0  0  0  0  0  0  0  0  0  0  0
   12.4690   -5.2624   19.9024 C   0  0  0  0  0  0  0  0  0  0  0  0
    3.2548   -9.9919   17.4189 C   0  0  0  0  0  0  0  0  0  0  0  0
   12.4767   -4.7393   22.1790 C   0  0  0  0  0  0  0  0  0  0  0  0
    7.8593   -5.3772   15.3569 N   0  0  0  0  0  0  0  0  0  0  0  0
    7.4412   -6.9038   16.9283 C   0  0  0  0  0  0  0  0  0  0  0  0
  1 21  4  0
  1 23  4  0
  2  5  1  0
  2 13  4  0
  2 16  4  0
  3  6  4  0
  3  7  4  0
  4 13  4  0
  4 19  4  0
  4 24  4  0
  6 23  4  0
  7 16  1  0
  7 21  4  0
  8 18  1  0
  9 20  4  0
  9 22  4  0
 10 17  1  0
 10 25  1  0
 11 16  4  0
 11 19  4  0
 12 15  4  0
 12 22  4  0
 14 24  4  0
 14 25  4  0
 15 17  4  0
 17 20  4  0
 18 23  1  0
 19 25  4  0
M  END
$$$$

 Created by Python create_sdf_string function

 25 28  0  0  0  0  0  0  0  0999 V2000
   13.1533   -5.2399   21.0682 C   0  0  0  0  0  0  0  0  0  0  0  0
   10.4729   -4.0295   17.6135 C   0  0  0  0  0  0  0  0  0  0  0  0
   10.4789   -4.3641   20.9564 C   0  0  0  0  0  0  0  0  0  0  0  0
    8.7421   -5.1412   16.3650 C   0  0  0  0  0  0  0  0  0  0  0  0
   11.4353   -2.9204   17.8044 C   0  0  0  0  0  0  0  0  0  0  0  0
   11.1529   -4.3028   22.1277 C   0  0  0  0  0  0  0  0  0  0  0  0
   11.1290   -4.8502   19.8052 C   0  0  0  0  0  0  0  0  0  0  0  0
   12.4329   -4.2159   24.4224 C   0  0  0  0  0  0  0  0  0  0  0  0
    3.4740   -9.0387   16.5022 C   0  0  0  0  0  0  0  0  0  0  0  0
    6.8384   -7.9290   17.5282 N   0  0  0  0  0  0  0  0  0  0  0  0
    9.4126   -5.9853   18.4899 C   0  0  0  0  0  0  0  0  0  0  0  0
    4.2064  -10.3242   18.3302 C   0  0  0  0  0  0  0  0  0  0  0  0
    9.6599   -4.1551   16.4796 N   0  0  0  0  0  0  0  0  0  0  0  0
    7.0644   -6.4612   15.7375 N   0  0  0  0  0  0  0  0  0  0  0  0
    5.3549   -9.6322   18.3190 C   0  0  0  0  0  0  0  0  0  0  0  0
   10.3704   -4.9638   18.6510 C   0  0  0  0  0  0  0  0  0  0  0  0
    5.5935   -8.6419   17.4234 C   0  0  0  0  0  0  0  0  0  0  0  0
   13.0726   -4.6648   23.3394 O   0  0  0  0  0  0  0  0  0  0  0  0
    8.5955   -6.0705   17.3996 C   0  0  0  0  0  0  0  0  0  0  0  0
    4.6223   -8.3832   16.5030 C   0  0  0  0  0  0  0  0  0  0  0  0
   12.4690   -5.2624   19.9024 C   0  0  0  0  0  0  0  0  0  0  0  0
    3.2548   -9.9919   17.4189 C   0  0  0  0  0  0  0  0  0  0  0  0
   12.4767   -4.7393   22.1790 C   0  0  0  0  0  0  0  0  0  0  0  0
    7.8593   -5.3772   15.3569 N   0  0  0  0  0  0  0  0  0  0  0  0
    7.4412   -6.9038   16.9283 C   0  0  0  0  0  0  0  0  0  0  0  0
  1 21  4  0
  1 23  4  0
  2  5  1  0
  2 13  4  0
  2 16  4  0
  3  6  4  0
  3  7  4  0
  4 13  4  0
  4 19  4  0
  4 24  4  0
  6 23  4  0
  7 16  1  0
  7 21  4  0
  8 18  1  0
  9 20  4  0
  9 22  4  0
 10 17  1  0
 10 25  1  0
 11 16  4  0
 11 19  4  0
 12 15  4  0
 12 22  4  0
 14 24  4  0
 14 25  4  0
 15 17  4  0
 17 20  4  0
 18 23  1  0
 19 25  4  0
M  END
$$$$

 Created by Python create_sdf_string function

 25 28  0  0  0  0  0  0  0  0999 V2000
   13.1533   -5.2399   21.0682 C   0  0  0  0  0  0  0  0  0  0  0  0
   10.4729   -4.0295   17.6135 C   0  0  0  0  0  0  0  0  0  0  0  0
   10.4789   -4.3641   20.9564 C   0  0  0  0  0  0  0  0  0  0  0  0
    8.7421   -5.1412   16.3650 C   0  0  0  0  0  0  0  0  0  0  0  0
   11.4353   -2.9204   17.8044 C   0  0  0  0  0  0  0  0  0  0  0  0
   11.1529   -4.3028   22.1277 C   0  0  0  0  0  0  0  0  0  0  0  0
   11.1290   -4.8502   19.8052 C   0  0  0  0  0  0  0  0  0  0  0  0
   12.4329   -4.2159   24.4224 C   0  0  0  0  0  0  0  0  0  0  0  0
    3.4740   -9.0387   16.5022 C   0  0  0  0  0  0  0  0  0  0  0  0
    6.8384   -7.9290   17.5282 N   0  0  0  0  0  0  0  0  0  0  0  0
    9.4126   -5.9853   18.4899 C   0  0  0  0  0  0  0  0  0  0  0  0
    4.2064  -10.3242   18.3302 C   0  0  0  0  0  0  0  0  0  0  0  0
    9.6599   -4.1551   16.4796 N   0  0  0  0  0  0  0  0  0  0  0  0
    7.0644   -6.4612   15.7375 N   0  0  0  0  0  0  0  0  0  0  0  0
    5.3549   -9.6322   18.3190 C   0  0  0  0  0  0  0  0  0  0  0  0
   10.3704   -4.9638   18.6510 C   0  0  0  0  0  0  0  0  0  0  0  0
    5.5935   -8.6419   17.4234 C   0  0  0  0  0  0  0  0  0  0  0  0
   13.0726   -4.6648   23.3394 O   0  0  0  0  0  0  0  0  0  0  0  0
    8.5955   -6.0705   17.3996 C   0  0  0  0  0  0  0  0  0  0  0  0
    4.6223   -8.3832   16.5030 C   0  0  0  0  0  0  0  0  0  0  0  0
   12.4690   -5.2624   19.9024 C   0  0  0  0  0  0  0  0  0  0  0  0
    3.2548   -9.9919   17.4189 C   0  0  0  0  0  0  0  0  0  0  0  0
   12.4767   -4.7393   22.1790 C   0  0  0  0  0  0  0  0  0  0  0  0
    7.8593   -5.3772   15.3569 N   0  0  0  0  0  0  0  0  0  0  0  0
    7.4412   -6.9038   16.9283 C   0  0  0  0  0  0  0  0  0  0  0  0
  1 21  4  0
  1 23  4  0
  2  5  1  0
  2 13  4  0
  2 16  4  0
  3  6  4  0
  3  7  4  0
  4 13  4  0
  4 19  4  0
  4 24  4  0
  6 23  4  0
  7 16  1  0
  7 21  4  0
  8 18  1  0
  9 20  4  0
  9 22  4  0
 10 17  1  0
 10 25  1  0
 11 16  4  0
 11 19  4  0
 12 15  4  0
 12 22  4  0
 14 24  4  0
 14 25  4  0
 15 17  4  0
 17 20  4  0
 18 23  1  0
 19 25  4  0
M  END
$$$$

 Created by Python create_sdf_string function

 25 28  0  0  0  0  0  0  0  0999 V2000
   13.1533   -5.2399   21.0682 C   0  0  0  0  0  0  0  0  0  0  0  0
   10.4729   -4.0295   17.6135 C   0  0  0  0  0  0  0  0  0  0  0  0
   10.4789   -4.3641   20.9564 C   0  0  0  0  0  0  0  0  0  0  0  0
    8.7421   -5.1412   16.3650 C   0  0  0  0  0  0  0  0  0  0  0  0
   11.4353   -2.9204   17.8044 C   0  0  0  0  0  0  0  0  0  0  0  0
   11.1529   -4.3028   22.1277 C   0  0  0  0  0  0  0  0  0  0  0  0
   11.1290   -4.8502   19.8052 C   0  0  0  0  0  0  0  0  0  0  0  0
   12.4329   -4.2159   24.4224 C   0  0  0  0  0  0  0  0  0  0  0  0
    3.4740   -9.0387   16.5022 C   0  0  0  0  0  0  0  0  0  0  0  0
    6.8384   -7.9290   17.5282 N   0  0  0  0  0  0  0  0  0  0  0  0
    9.4126   -5.9853   18.4899 C   0  0  0  0  0  0  0  0  0  0  0  0
    4.2064  -10.3242   18.3302 C   0  0  0  0  0  0  0  0  0  0  0  0
    9.6599   -4.1551   16.4796 N   0  0  0  0  0  0  0  0  0  0  0  0
    7.0644   -6.4612   15.7375 N   0  0  0  0  0  0  0  0  0  0  0  0
    5.3549   -9.6322   18.3190 C   0  0  0  0  0  0  0  0  0  0  0  0
   10.3704   -4.9638   18.6510 C   0  0  0  0  0  0  0  0  0  0  0  0
    5.5935   -8.6419   17.4234 C   0  0  0  0  0  0  0  0  0  0  0  0
   13.0726   -4.6648   23.3394 O   0  0  0  0  0  0  0  0  0  0  0  0
    8.5955   -6.0705   17.3996 C   0  0  0  0  0  0  0  0  0  0  0  0
    4.6223   -8.3832   16.5030 C   0  0  0  0  0  0  0  0  0  0  0  0
   12.4690   -5.2624   19.9024 C   0  0  0  0  0  0  0  0  0  0  0  0
    3.2548   -9.9919   17.4189 C   0  0  0  0  0  0  0  0  0  0  0  0
   12.4767   -4.7393   22.1790 C   0  0  0  0  0  0  0  0  0  0  0  0
    7.8593   -5.3772   15.3569 N   0  0  0  0  0  0  0  0  0  0  0  0
    7.4412   -6.9038   16.9283 C   0  0  0  0  0  0  0  0  0  0  0  0
  1 21  4  0
  1 23  4  0
  2  5  1  0
  2 13  4  0
  2 16  4  0
  3  6  4  0
  3  7  4  0
  4 13  4  0
  4 19  4  0
  4 24  4  0
  6 23  4  0
  7 16  1  0
  7 21  4  0
  8 18  1  0
  9 20  4  0
  9 22  4  0
 10 17  1  0
 10 25  1  0
 11 16  4  0
 11 19  4  0
 12 15  4  0
 12 22  4  0
 14 24  4  0
 14 25  4  0
 15 17  4  0
 17 20  4  0
 18 23  1  0
 19 25  4  0
M  END
$$$$

 Created by Python create_sdf_string function

 25 28  0  0  0  0  0  0  0  0999 V2000
   13.1533   -5.2399   21.0682 C   0  0  0  0  0  0  0  0  0  0  0  0
   10.4729   -4.0295   17.6135 C   0  0  0  0  0  0  0  0  0  0  0  0
   10.4789   -4.3641   20.9564 C   0  0  0  0  0  0  0  0  0  0  0  0
    8.7421   -5.1412   16.3650 C   0  0  0  0  0  0  0  0  0  0  0  0
   11.4353   -2.9204   17.8044 C   0  0  0  0  0  0  0  0  0  0  0  0
   11.1529   -4.3028   22.1277 C   0  0  0  0  0  0  0  0  0  0  0  0
   11.1290   -4.8502   19.8052 C   0  0  0  0  0  0  0  0  0  0  0  0
   12.4329   -4.2159   24.4224 C   0  0  0  0  0  0  0  0  0  0  0  0
    3.4740   -9.0387   16.5022 C   0  0  0  0  0  0  0  0  0  0  0  0
    6.8384   -7.9290   17.5282 N   0  0  0  0  0  0  0  0  0  0  0  0
    9.4126   -5.9853   18.4899 C   0  0  0  0  0  0  0  0  0  0  0  0
    4.2064  -10.3242   18.3302 C   0  0  0  0  0  0  0  0  0  0  0  0
    9.6599   -4.1551   16.4796 N   0  0  0  0  0  0  0  0  0  0  0  0
    7.0644   -6.4612   15.7375 N   0  0  0  0  0  0  0  0  0  0  0  0
    5.3549   -9.6322   18.3190 C   0  0  0  0  0  0  0  0  0  0  0  0
   10.3704   -4.9638   18.6510 C   0  0  0  0  0  0  0  0  0  0  0  0
    5.5935   -8.6419   17.4234 C   0  0  0  0  0  0  0  0  0  0  0  0
   13.0726   -4.6648   23.3394 O   0  0  0  0  0  0  0  0  0  0  0  0
    8.5955   -6.0705   17.3996 C   0  0  0  0  0  0  0  0  0  0  0  0
    4.6223   -8.3832   16.5030 C   0  0  0  0  0  0  0  0  0  0  0  0
   12.4690   -5.2624   19.9024 C   0  0  0  0  0  0  0  0  0  0  0  0
    3.2548   -9.9919   17.4189 C   0  0  0  0  0  0  0  0  0  0  0  0
   12.4767   -4.7393   22.1790 C   0  0  0  0  0  0  0  0  0  0  0  0
    7.8593   -5.3772   15.3569 N   0  0  0  0  0  0  0  0  0  0  0  0
    7.4412   -6.9038   16.9283 C   0  0  0  0  0  0  0  0  0  0  0  0
  1 21  4  0
  1 23  4  0
  2  5  1  0
  2 13  4  0
  2 16  4  0
  3  6  4  0
  3  7  4  0
  4 13  4  0
  4 19  4  0
  4 24  4  0
  6 23  4  0
  7 16  1  0
  7 21  4  0
  8 18  1  0
  9 20  4  0
  9 22  4  0
 10 17  1  0
 10 25  1  0
 11 16  4  0
 11 19  4  0
 12 15  4  0
 12 22  4  0
 14 24  4  0
 14 25  4  0
 15 17  4  0
 17 20  4  0
 18 23  1  0
 19 25  4  0
M  END
$$$$

 Created by Python create_sdf_string function

 25 28  0  0  0  0  0  0  0  0999 V2000
   13.1533   -5.2399   21.0682 C   0  0  0  0  0  0  0  0  0  0  0  0
   10.4729   -4.0295   17.6135 C   0  0  0  0  0  0  0  0  0  0  0  0
   10.4789   -4.3641   20.9564 C   0  0  0  0  0  0  0  0  0  0  0  0
    8.7421   -5.1412   16.3650 C   0  0  0  0  0  0  0  0  0  0  0  0
   11.4353   -2.9204   17.8044 C   0  0  0  0  0  0  0  0  0  0  0  0
   11.1529   -4.3028   22.1277 C   0  0  0  0  0  0  0  0  0  0  0  0
   11.1290   -4.8502   19.8052 C   0  0  0  0  0  0  0  0  0  0  0  0
   12.4329   -4.2159   24.4224 C   0  0  0  0  0  0  0  0  0  0  0  0
    3.4740   -9.0387   16.5022 C   0  0  0  0  0  0  0  0  0  0  0  0
    6.8384   -7.9290   17.5282 N   0  0  0  0  0  0  0  0  0  0  0  0
    9.4126   -5.9853   18.4899 C   0  0  0  0  0  0  0  0  0  0  0  0
    4.2064  -10.3242   18.3302 C   0  0  0  0  0  0  0  0  0  0  0  0
    9.6599   -4.1551   16.4796 N   0  0  0  0  0  0  0  0  0  0  0  0
    7.0644   -6.4612   15.7375 N   0  0  0  0  0  0  0  0  0  0  0  0
    5.3549   -9.6322   18.3190 C   0  0  0  0  0  0  0  0  0  0  0  0
   10.3704   -4.9638   18.6510 C   0  0  0  0  0  0  0  0  0  0  0  0
    5.5935   -8.6419   17.4234 C   0  0  0  0  0  0  0  0  0  0  0  0
   13.0726   -4.6648   23.3394 O   0  0  0  0  0  0  0  0  0  0  0  0
    8.5955   -6.0705   17.3996 C   0  0  0  0  0  0  0  0  0  0  0  0
    4.6223   -8.3832   16.5030 C   0  0  0  0  0  0  0  0  0  0  0  0
   12.4690   -5.2624   19.9024 C   0  0  0  0  0  0  0  0  0  0  0  0
    3.2548   -9.9919   17.4189 C   0  0  0  0  0  0  0  0  0  0  0  0
   12.4767   -4.7393   22.1790 C   0  0  0  0  0  0  0  0  0  0  0  0
    7.8593   -5.3772   15.3569 N   0  0  0  0  0  0  0  0  0  0  0  0
    7.4412   -6.9038   16.9283 C   0  0  0  0  0  0  0  0  0  0  0  0
  1 21  4  0
  1 23  4  0
  2  5  1  0
  2 13  4  0
  2 16  4  0
  3  6  4  0
  3  7  4  0
  4 13  4  0
  4 19  4  0
  4 24  4  0
  6 23  4  0
  7 16  1  0
  7 21  4  0
  8 18  1  0
  9 20  4  0
  9 22  4  0
 10 17  1  0
 10 25  1  0
 11 16  4  0
 11 19  4  0
 12 15  4  0
 12 22  4  0
 14 24  4  0
 14 25  4  0
 15 17  4  0
 17 20  4  0
 18 23  1  0
 19 25  4  0
M  END
$$$$

 Created by Python create_sdf_string function

 25 28  0  0  0  0  0  0  0  0999 V2000
   13.1533   -5.2399   21.0682 C   0  0  0  0  0  0  0  0  0  0  0  0
   10.4729   -4.0295   17.6135 C   0  0  0  0  0  0  0  0  0  0  0  0
   10.4789   -4.3641   20.9564 C   0  0  0  0  0  0  0  0  0  0  0  0
    8.7421   -5.1412   16.3650 C   0  0  0  0  0  0  0  0  0  0  0  0
   11.4353   -2.9204   17.8044 C   0  0  0  0  0  0  0  0  0  0  0  0
   11.1529   -4.3028   22.1277 C   0  0  0  0  0  0  0  0  0  0  0  0
   11.1290   -4.8502   19.8052 C   0  0  0  0  0  0  0  0  0  0  0  0
   12.4329   -4.2159   24.4224 C   0  0  0  0  0  0  0  0  0  0  0  0
    3.4740   -9.0387   16.5022 C   0  0  0  0  0  0  0  0  0  0  0  0
    6.8384   -7.9290   17.5282 N   0  0  0  0  0  0  0  0  0  0  0  0
    9.4126   -5.9853   18.4899 C   0  0  0  0  0  0  0  0  0  0  0  0
    4.2064  -10.3242   18.3302 C   0  0  0  0  0  0  0  0  0  0  0  0
    9.6599   -4.1551   16.4796 N   0  0  0  0  0  0  0  0  0  0  0  0
    7.0644   -6.4612   15.7375 N   0  0  0  0  0  0  0  0  0  0  0  0
    5.3549   -9.6322   18.3190 C   0  0  0  0  0  0  0  0  0  0  0  0
   10.3704   -4.9638   18.6510 C   0  0  0  0  0  0  0  0  0  0  0  0
    5.5935   -8.6419   17.4234 C   0  0  0  0  0  0  0  0  0  0  0  0
   13.0726   -4.6648   23.3394 O   0  0  0  0  0  0  0  0  0  0  0  0
    8.5955   -6.0705   17.3996 C   0  0  0  0  0  0  0  0  0  0  0  0
    4.6223   -8.3832   16.5030 C   0  0  0  0  0  0  0  0  0  0  0  0
   12.4690   -5.2624   19.9024 C   0  0  0  0  0  0  0  0  0  0  0  0
    3.2548   -9.9919   17.4189 C   0  0  0  0  0  0  0  0  0  0  0  0
   12.4767   -4.7393   22.1790 C   0  0  0  0  0  0  0  0  0  0  0  0
    7.8593   -5.3772   15.3569 N   0  0  0  0  0  0  0  0  0  0  0  0
    7.4412   -6.9038   16.9283 C   0  0  0  0  0  0  0  0  0  0  0  0
  1 21  4  0
  1 23  4  0
  2  5  1  0
  2 13  4  0
  2 16  4  0
  3  6  4  0
  3  7  4  0
  4 13  4  0
  4 19  4  0
  4 24  4  0
  6 23  4  0
  7 16  1  0
  7 21  4  0
  8 18  1  0
  9 20  4  0
  9 22  4  0
 10 17  1  0
 10 25  1  0
 11 16  4  0
 11 19  4  0
 12 15  4  0
 12 22  4  0
 14 24  4  0
 14 25  4  0
 15 17  4  0
 17 20  4  0
 18 23  1  0
 19 25  4  0
M  END
$$$$

 Created by Python create_sdf_string function

 25 28  0  0  0  0  0  0  0  0999 V2000
   13.1533   -5.2399   21.0682 C   0  0  0  0  0  0  0  0  0  0  0  0
   10.4729   -4.0295   17.6135 C   0  0  0  0  0  0  0  0  0  0  0  0
   10.4789   -4.3641   20.9564 C   0  0  0  0  0  0  0  0  0  0  0  0
    8.7421   -5.1412   16.3650 C   0  0  0  0  0  0  0  0  0  0  0  0
   11.4353   -2.9204   17.8044 C   0  0  0  0  0  0  0  0  0  0  0  0
   11.1529   -4.3028   22.1277 C   0  0  0  0  0  0  0  0  0  0  0  0
   11.1290   -4.8502   19.8052 C   0  0  0  0  0  0  0  0  0  0  0  0
   12.4329   -4.2159   24.4224 C   0  0  0  0  0  0  0  0  0  0  0  0
    3.4740   -9.0387   16.5022 C   0  0  0  0  0  0  0  0  0  0  0  0
    6.8384   -7.9290   17.5282 N   0  0  0  0  0  0  0  0  0  0  0  0
    9.4126   -5.9853   18.4899 C   0  0  0  0  0  0  0  0  0  0  0  0
    4.2064  -10.3242   18.3302 C   0  0  0  0  0  0  0  0  0  0  0  0
    9.6599   -4.1551   16.4796 N   0  0  0  0  0  0  0  0  0  0  0  0
    7.0644   -6.4612   15.7375 N   0  0  0  0  0  0  0  0  0  0  0  0
    5.3549   -9.6322   18.3190 C   0  0  0  0  0  0  0  0  0  0  0  0
   10.3704   -4.9638   18.6510 C   0  0  0  0  0  0  0  0  0  0  0  0
    5.5935   -8.6419   17.4234 C   0  0  0  0  0  0  0  0  0  0  0  0
   13.0726   -4.6648   23.3394 O   0  0  0  0  0  0  0  0  0  0  0  0
    8.5955   -6.0705   17.3996 C   0  0  0  0  0  0  0  0  0  0  0  0
    4.6223   -8.3832   16.5030 C   0  0  0  0  0  0  0  0  0  0  0  0
   12.4690   -5.2624   19.9024 C   0  0  0  0  0  0  0  0  0  0  0  0
    3.2548   -9.9919   17.4189 C   0  0  0  0  0  0  0  0  0  0  0  0
   12.4767   -4.7393   22.1790 C   0  0  0  0  0  0  0  0  0  0  0  0
    7.8593   -5.3772   15.3569 N   0  0  0  0  0  0  0  0  0  0  0  0
    7.4412   -6.9038   16.9283 C   0  0  0  0  0  0  0  0  0  0  0  0
  1 21  4  0
  1 23  4  0
  2  5  1  0
  2 13  4  0
  2 16  4  0
  3  6  4  0
  3  7  4  0
  4 13  4  0
  4 19  4  0
  4 24  4  0
  6 23  4  0
  7 16  1  0
  7 21  4  0
  8 18  1  0
  9 20  4  0
  9 22  4  0
 10 17  1  0
 10 25  1  0
 11 16  4  0
 11 19  4  0
 12 15  4  0
 12 22  4  0
 14 24  4  0
 14 25  4  0
 15 17  4  0
 17 20  4  0
 18 23  1  0
 19 25  4  0
M  END
$$$$

 Created by Python create_sdf_string function

 25 28  0  0  0  0  0  0  0  0999 V2000
   13.1533   -5.2399   21.0682 C   0  0  0  0  0  0  0  0  0  0  0  0
   10.4729   -4.0295   17.6135 C   0  0  0  0  0  0  0  0  0  0  0  0
   10.4789   -4.3641   20.9564 C   0  0  0  0  0  0  0  0  0  0  0  0
    8.7421   -5.1412   16.3650 C   0  0  0  0  0  0  0  0  0  0  0  0
   11.4353   -2.9204   17.8044 C   0  0  0  0  0  0  0  0  0  0  0  0
   11.1529   -4.3028   22.1277 C   0  0  0  0  0  0  0  0  0  0  0  0
   11.1290   -4.8502   19.8052 C   0  0  0  0  0  0  0  0  0  0  0  0
   12.4329   -4.2159   24.4224 C   0  0  0  0  0  0  0  0  0  0  0  0
    3.4740   -9.0387   16.5022 C   0  0  0  0  0  0  0  0  0  0  0  0
    6.8384   -7.9290   17.5282 N   0  0  0  0  0  0  0  0  0  0  0  0
    9.4126   -5.9853   18.4899 C   0  0  0  0  0  0  0  0  0  0  0  0
    4.2064  -10.3242   18.3302 C   0  0  0  0  0  0  0  0  0  0  0  0
    9.6599   -4.1551   16.4796 N   0  0  0  0  0  0  0  0  0  0  0  0
    7.0644   -6.4612   15.7375 N   0  0  0  0  0  0  0  0  0  0  0  0
    5.3549   -9.6322   18.3190 C   0  0  0  0  0  0  0  0  0  0  0  0
   10.3704   -4.9638   18.6510 C   0  0  0  0  0  0  0  0  0  0  0  0
    5.5935   -8.6419   17.4234 C   0  0  0  0  0  0  0  0  0  0  0  0
   13.0726   -4.6648   23.3394 O   0  0  0  0  0  0  0  0  0  0  0  0
    8.5955   -6.0705   17.3996 C   0  0  0  0  0  0  0  0  0  0  0  0
    4.6223   -8.3832   16.5030 C   0  0  0  0  0  0  0  0  0  0  0  0
   12.4690   -5.2624   19.9024 C   0  0  0  0  0  0  0  0  0  0  0  0
    3.2548   -9.9919   17.4189 C   0  0  0  0  0  0  0  0  0  0  0  0
   12.4767   -4.7393   22.1790 C   0  0  0  0  0  0  0  0  0  0  0  0
    7.8593   -5.3772   15.3569 N   0  0  0  0  0  0  0  0  0  0  0  0
    7.4412   -6.9038   16.9283 C   0  0  0  0  0  0  0  0  0  0  0  0
  1 21  4  0
  1 23  4  0
  2  5  1  0
  2 13  4  0
  2 16  4  0
  3  6  4  0
  3  7  4  0
  4 13  4  0
  4 19  4  0
  4 24  4  0
  6 23  4  0
  7 16  1  0
  7 21  4  0
  8 18  1  0
  9 20  4  0
  9 22  4  0
 10 17  1  0
 10 25  1  0
 11 16  4  0
 11 19  4  0
 12 15  4  0
 12 22  4  0
 14 24  4  0
 14 25  4  0
 15 17  4  0
 17 20  4  0
 18 23  1  0
 19 25  4  0
M  END
$$$$

 Created by Python create_sdf_string function

 25 28  0  0  0  0  0  0  0  0999 V2000
   13.1533   -5.2399   21.0682 C   0  0  0  0  0  0  0  0  0  0  0  0
   10.4729   -4.0295   17.6135 C   0  0  0  0  0  0  0  0  0  0  0  0
   10.4789   -4.3641   20.9564 C   0  0  0  0  0  0  0  0  0  0  0  0
    8.7421   -5.1412   16.3650 C   0  0  0  0  0  0  0  0  0  0  0  0
   11.4353   -2.9204   17.8044 C   0  0  0  0  0  0  0  0  0  0  0  0
   11.1529   -4.3028   22.1277 C   0  0  0  0  0  0  0  0  0  0  0  0
   11.1290   -4.8502   19.8052 C   0  0  0  0  0  0  0  0  0  0  0  0
   12.4329   -4.2159   24.4224 C   0  0  0  0  0  0  0  0  0  0  0  0
    3.4740   -9.0387   16.5022 C   0  0  0  0  0  0  0  0  0  0  0  0
    6.8384   -7.9290   17.5282 N   0  0  0  0  0  0  0  0  0  0  0  0
    9.4126   -5.9853   18.4899 C   0  0  0  0  0  0  0  0  0  0  0  0
    4.2064  -10.3242   18.3302 C   0  0  0  0  0  0  0  0  0  0  0  0
    9.6599   -4.1551   16.4796 N   0  0  0  0  0  0  0  0  0  0  0  0
    7.0644   -6.4612   15.7375 N   0  0  0  0  0  0  0  0  0  0  0  0
    5.3549   -9.6322   18.3190 C   0  0  0  0  0  0  0  0  0  0  0  0
   10.3704   -4.9638   18.6510 C   0  0  0  0  0  0  0  0  0  0  0  0
    5.5935   -8.6419   17.4234 C   0  0  0  0  0  0  0  0  0  0  0  0
   13.0726   -4.6648   23.3394 O   0  0  0  0  0  0  0  0  0  0  0  0
    8.5955   -6.0705   17.3996 C   0  0  0  0  0  0  0  0  0  0  0  0
    4.6223   -8.3832   16.5030 C   0  0  0  0  0  0  0  0  0  0  0  0
   12.4690   -5.2624   19.9024 C   0  0  0  0  0  0  0  0  0  0  0  0
    3.2548   -9.9919   17.4189 C   0  0  0  0  0  0  0  0  0  0  0  0
   12.4767   -4.7393   22.1790 C   0  0  0  0  0  0  0  0  0  0  0  0
    7.8593   -5.3772   15.3569 N   0  0  0  0  0  0  0  0  0  0  0  0
    7.4412   -6.9038   16.9283 C   0  0  0  0  0  0  0  0  0  0  0  0
  1 21  4  0
  1 23  4  0
  2  5  1  0
  2 13  4  0
  2 16  4  0
  3  6  4  0
  3  7  4  0
  4 13  4  0
  4 19  4  0
  4 24  4  0
  6 23  4  0
  7 16  1  0
  7 21  4  0
  8 18  1  0
  9 20  4  0
  9 22  4  0
 10 17  1  0
 10 25  1  0
 11 16  4  0
 11 19  4  0
 12 15  4  0
 12 22  4  0
 14 24  4  0
 14 25  4  0
 15 17  4  0
 17 20  4  0
 18 23  1  0
 19 25  4  0
M  END
$$$$

 Created by Python create_sdf_string function

 25 28  0  0  0  0  0  0  0  0999 V2000
   13.1533   -5.2399   21.0682 C   0  0  0  0  0  0  0  0  0  0  0  0
   10.4729   -4.0295   17.6135 C   0  0  0  0  0  0  0  0  0  0  0  0
   10.4789   -4.3641   20.9564 C   0  0  0  0  0  0  0  0  0  0  0  0
    8.7421   -5.1412   16.3650 C   0  0  0  0  0  0  0  0  0  0  0  0
   11.4353   -2.9204   17.8044 C   0  0  0  0  0  0  0  0  0  0  0  0
   11.1529   -4.3028   22.1277 C   0  0  0  0  0  0  0  0  0  0  0  0
   11.1290   -4.8502   19.8052 C   0  0  0  0  0  0  0  0  0  0  0  0
   12.4329   -4.2159   24.4224 C   0  0  0  0  0  0  0  0  0  0  0  0
    3.4740   -9.0387   16.5022 C   0  0  0  0  0  0  0  0  0  0  0  0
    6.8384   -7.9290   17.5282 N   0  0  0  0  0  0  0  0  0  0  0  0
    9.4126   -5.9853   18.4899 C   0  0  0  0  0  0  0  0  0  0  0  0
    4.2064  -10.3242   18.3302 C   0  0  0  0  0  0  0  0  0  0  0  0
    9.6599   -4.1551   16.4796 N   0  0  0  0  0  0  0  0  0  0  0  0
    7.0644   -6.4612   15.7375 N   0  0  0  0  0  0  0  0  0  0  0  0
    5.3549   -9.6322   18.3190 C   0  0  0  0  0  0  0  0  0  0  0  0
   10.3704   -4.9638   18.6510 C   0  0  0  0  0  0  0  0  0  0  0  0
    5.5935   -8.6419   17.4234 C   0  0  0  0  0  0  0  0  0  0  0  0
   13.0726   -4.6648   23.3394 O   0  0  0  0  0  0  0  0  0  0  0  0
    8.5955   -6.0705   17.3996 C   0  0  0  0  0  0  0  0  0  0  0  0
    4.6223   -8.3832   16.5030 C   0  0  0  0  0  0  0  0  0  0  0  0
   12.4690   -5.2624   19.9024 C   0  0  0  0  0  0  0  0  0  0  0  0
    3.2548   -9.9919   17.4189 C   0  0  0  0  0  0  0  0  0  0  0  0
   12.4767   -4.7393   22.1790 C   0  0  0  0  0  0  0  0  0  0  0  0
    7.8593   -5.3772   15.3569 N   0  0  0  0  0  0  0  0  0  0  0  0
    7.4412   -6.9038   16.9283 C   0  0  0  0  0  0  0  0  0  0  0  0
  1 21  4  0
  1 23  4  0
  2  5  1  0
  2 13  4  0
  2 16  4  0
  3  6  4  0
  3  7  4  0
  4 13  4  0
  4 19  4  0
  4 24  4  0
  6 23  4  0
  7 16  1  0
  7 21  4  0
  8 18  1  0
  9 20  4  0
  9 22  4  0
 10 17  1  0
 10 25  1  0
 11 16  4  0
 11 19  4  0
 12 15  4  0
 12 22  4  0
 14 24  4  0
 14 25  4  0
 15 17  4  0
 17 20  4  0
 18 23  1  0
 19 25  4  0
M  END
$$$$

 Created by Python create_sdf_string function

 25 28  0  0  0  0  0  0  0  0999 V2000
   13.1533   -5.2399   21.0682 C   0  0  0  0  0  0  0  0  0  0  0  0
   10.4729   -4.0295   17.6135 C   0  0  0  0  0  0  0  0  0  0  0  0
   10.4789   -4.3641   20.9564 C   0  0  0  0  0  0  0  0  0  0  0  0
    8.7421   -5.1412   16.3650 C   0  0  0  0  0  0  0  0  0  0  0  0
   11.4353   -2.9204   17.8044 C   0  0  0  0  0  0  0  0  0  0  0  0
   11.1529   -4.3028   22.1277 C   0  0  0  0  0  0  0  0  0  0  0  0
   11.1290   -4.8502   19.8052 C   0  0  0  0  0  0  0  0  0  0  0  0
   12.4329   -4.2159   24.4224 C   0  0  0  0  0  0  0  0  0  0  0  0
    3.4740   -9.0387   16.5022 C   0  0  0  0  0  0  0  0  0  0  0  0
    6.8384   -7.9290   17.5282 N   0  0  0  0  0  0  0  0  0  0  0  0
    9.4126   -5.9853   18.4899 C   0  0  0  0  0  0  0  0  0  0  0  0
    4.2064  -10.3242   18.3302 C   0  0  0  0  0  0  0  0  0  0  0  0
    9.6599   -4.1551   16.4796 N   0  0  0  0  0  0  0  0  0  0  0  0
    7.0644   -6.4612   15.7375 N   0  0  0  0  0  0  0  0  0  0  0  0
    5.3549   -9.6322   18.3190 C   0  0  0  0  0  0  0  0  0  0  0  0
   10.3704   -4.9638   18.6510 C   0  0  0  0  0  0  0  0  0  0  0  0
    5.5935   -8.6419   17.4234 C   0  0  0  0  0  0  0  0  0  0  0  0
   13.0726   -4.6648   23.3394 O   0  0  0  0  0  0  0  0  0  0  0  0
    8.5955   -6.0705   17.3996 C   0  0  0  0  0  0  0  0  0  0  0  0
    4.6223   -8.3832   16.5030 C   0  0  0  0  0  0  0  0  0  0  0  0
   12.4690   -5.2624   19.9024 C   0  0  0  0  0  0  0  0  0  0  0  0
    3.2548   -9.9919   17.4189 C   0  0  0  0  0  0  0  0  0  0  0  0
   12.4767   -4.7393   22.1790 C   0  0  0  0  0  0  0  0  0  0  0  0
    7.8593   -5.3772   15.3569 N   0  0  0  0  0  0  0  0  0  0  0  0
    7.4412   -6.9038   16.9283 C   0  0  0  0  0  0  0  0  0  0  0  0
  1 21  4  0
  1 23  4  0
  2  5  1  0
  2 13  4  0
  2 16  4  0
  3  6  4  0
  3  7  4  0
  4 13  4  0
  4 19  4  0
  4 24  4  0
  6 23  4  0
  7 16  1  0
  7 21  4  0
  8 18  1  0
  9 20  4  0
  9 22  4  0
 10 17  1  0
 10 25  1  0
 11 16  4  0
 11 19  4  0
 12 15  4  0
 12 22  4  0
 14 24  4  0
 14 25  4  0
 15 17  4  0
 17 20  4  0
 18 23  1  0
 19 25  4  0
M  END
$$$$

 Created by Python create_sdf_string function

 25 28  0  0  0  0  0  0  0  0999 V2000
   13.1533   -5.2399   21.0682 C   0  0  0  0  0  0  0  0  0  0  0  0
   10.4729   -4.0295   17.6135 C   0  0  0  0  0  0  0  0  0  0  0  0
   10.4789   -4.3641   20.9564 C   0  0  0  0  0  0  0  0  0  0  0  0
    8.7421   -5.1412   16.3650 C   0  0  0  0  0  0  0  0  0  0  0  0
   11.4353   -2.9204   17.8044 C   0  0  0  0  0  0  0  0  0  0  0  0
   11.1529   -4.3028   22.1277 C   0  0  0  0  0  0  0  0  0  0  0  0
   11.1290   -4.8502   19.8052 C   0  0  0  0  0  0  0  0  0  0  0  0
   12.4329   -4.2159   24.4224 C   0  0  0  0  0  0  0  0  0  0  0  0
    3.4740   -9.0387   16.5022 C   0  0  0  0  0  0  0  0  0  0  0  0
    6.8384   -7.9290   17.5282 N   0  0  0  0  0  0  0  0  0  0  0  0
    9.4126   -5.9853   18.4899 C   0  0  0  0  0  0  0  0  0  0  0  0
    4.2064  -10.3242   18.3302 C   0  0  0  0  0  0  0  0  0  0  0  0
    9.6599   -4.1551   16.4796 N   0  0  0  0  0  0  0  0  0  0  0  0
    7.0644   -6.4612   15.7375 N   0  0  0  0  0  0  0  0  0  0  0  0
    5.3549   -9.6322   18.3190 C   0  0  0  0  0  0  0  0  0  0  0  0
   10.3704   -4.9638   18.6510 C   0  0  0  0  0  0  0  0  0  0  0  0
    5.5935   -8.6419   17.4234 C   0  0  0  0  0  0  0  0  0  0  0  0
   13.0726   -4.6648   23.3394 O   0  0  0  0  0  0  0  0  0  0  0  0
    8.5955   -6.0705   17.3996 C   0  0  0  0  0  0  0  0  0  0  0  0
    4.6223   -8.3832   16.5030 C   0  0  0  0  0  0  0  0  0  0  0  0
   12.4690   -5.2624   19.9024 C   0  0  0  0  0  0  0  0  0  0  0  0
    3.2548   -9.9919   17.4189 C   0  0  0  0  0  0  0  0  0  0  0  0
   12.4767   -4.7393   22.1790 C   0  0  0  0  0  0  0  0  0  0  0  0
    7.8593   -5.3772   15.3569 N   0  0  0  0  0  0  0  0  0  0  0  0
    7.4412   -6.9038   16.9283 C   0  0  0  0  0  0  0  0  0  0  0  0
  1 21  4  0
  1 23  4  0
  2  5  1  0
  2 13  4  0
  2 16  4  0
  3  6  4  0
  3  7  4  0
  4 13  4  0
  4 19  4  0
  4 24  4  0
  6 23  4  0
  7 16  1  0
  7 21  4  0
  8 18  1  0
  9 20  4  0
  9 22  4  0
 10 17  1  0
 10 25  1  0
 11 16  4  0
 11 19  4  0
 12 15  4  0
 12 22  4  0
 14 24  4  0
 14 25  4  0
 15 17  4  0
 17 20  4  0
 18 23  1  0
 19 25  4  0
M  END
$$$$

 Created by Python create_sdf_string function

 25 28  0  0  0  0  0  0  0  0999 V2000
   13.1533   -5.2399   21.0682 C   0  0  0  0  0  0  0  0  0  0  0  0
   10.4729   -4.0295   17.6135 C   0  0  0  0  0  0  0  0  0  0  0  0
   10.4789   -4.3641   20.9564 C   0  0  0  0  0  0  0  0  0  0  0  0
    8.7421   -5.1412   16.3650 C   0  0  0  0  0  0  0  0  0  0  0  0
   11.4353   -2.9204   17.8044 C   0  0  0  0  0  0  0  0  0  0  0  0
   11.1529   -4.3028   22.1277 C   0  0  0  0  0  0  0  0  0  0  0  0
   11.1290   -4.8502   19.8052 C   0  0  0  0  0  0  0  0  0  0  0  0
   12.4329   -4.2159   24.4224 C   0  0  0  0  0  0  0  0  0  0  0  0
    3.4740   -9.0387   16.5022 C   0  0  0  0  0  0  0  0  0  0  0  0
    6.8384   -7.9290   17.5282 N   0  0  0  0  0  0  0  0  0  0  0  0
    9.4126   -5.9853   18.4899 C   0  0  0  0  0  0  0  0  0  0  0  0
    4.2064  -10.3242   18.3302 C   0  0  0  0  0  0  0  0  0  0  0  0
    9.6599   -4.1551   16.4796 N   0  0  0  0  0  0  0  0  0  0  0  0
    7.0644   -6.4612   15.7375 N   0  0  0  0  0  0  0  0  0  0  0  0
    5.3549   -9.6322   18.3190 C   0  0  0  0  0  0  0  0  0  0  0  0
   10.3704   -4.9638   18.6510 C   0  0  0  0  0  0  0  0  0  0  0  0
    5.5935   -8.6419   17.4234 C   0  0  0  0  0  0  0  0  0  0  0  0
   13.0726   -4.6648   23.3394 O   0  0  0  0  0  0  0  0  0  0  0  0
    8.5955   -6.0705   17.3996 C   0  0  0  0  0  0  0  0  0  0  0  0
    4.6223   -8.3832   16.5030 C   0  0  0  0  0  0  0  0  0  0  0  0
   12.4690   -5.2624   19.9024 C   0  0  0  0  0  0  0  0  0  0  0  0
    3.2548   -9.9919   17.4189 C   0  0  0  0  0  0  0  0  0  0  0  0
   12.4767   -4.7393   22.1790 C   0  0  0  0  0  0  0  0  0  0  0  0
    7.8593   -5.3772   15.3569 N   0  0  0  0  0  0  0  0  0  0  0  0
    7.4412   -6.9038   16.9283 C   0  0  0  0  0  0  0  0  0  0  0  0
  1 21  4  0
  1 23  4  0
  2  5  1  0
  2 13  4  0
  2 16  4  0
  3  6  4  0
  3  7  4  0
  4 13  4  0
  4 19  4  0
  4 24  4  0
  6 23  4  0
  7 16  1  0
  7 21  4  0
  8 18  1  0
  9 20  4  0
  9 22  4  0
 10 17  1  0
 10 25  1  0
 11 16  4  0
 11 19  4  0
 12 15  4  0
 12 22  4  0
 14 24  4  0
 14 25  4  0
 15 17  4  0
 17 20  4  0
 18 23  1  0
 19 25  4  0
M  END
$$$$

 Created by Python create_sdf_string function

 25 28  0  0  0  0  0  0  0  0999 V2000
   13.1533   -5.2399   21.0682 C   0  0  0  0  0  0  0  0  0  0  0  0
   10.4729   -4.0295   17.6135 C   0  0  0  0  0  0  0  0  0  0  0  0
   10.4789   -4.3641   20.9564 C   0  0  0  0  0  0  0  0  0  0  0  0
    8.7421   -5.1412   16.3650 C   0  0  0  0  0  0  0  0  0  0  0  0
   11.4353   -2.9204   17.8044 C   0  0  0  0  0  0  0  0  0  0  0  0
   11.1529   -4.3028   22.1277 C   0  0  0  0  0  0  0  0  0  0  0  0
   11.1290   -4.8502   19.8052 C   0  0  0  0  0  0  0  0  0  0  0  0
   12.4329   -4.2159   24.4224 C   0  0  0  0  0  0  0  0  0  0  0  0
    3.4740   -9.0387   16.5022 C   0  0  0  0  0  0  0  0  0  0  0  0
    6.8384   -7.9290   17.5282 N   0  0  0  0  0  0  0  0  0  0  0  0
    9.4126   -5.9853   18.4899 C   0  0  0  0  0  0  0  0  0  0  0  0
    4.2064  -10.3242   18.3302 C   0  0  0  0  0  0  0  0  0  0  0  0
    9.6599   -4.1551   16.4796 N   0  0  0  0  0  0  0  0  0  0  0  0
    7.0644   -6.4612   15.7375 N   0  0  0  0  0  0  0  0  0  0  0  0
    5.3549   -9.6322   18.3190 C   0  0  0  0  0  0  0  0  0  0  0  0
   10.3704   -4.9638   18.6510 C   0  0  0  0  0  0  0  0  0  0  0  0
    5.5935   -8.6419   17.4234 C   0  0  0  0  0  0  0  0  0  0  0  0
   13.0726   -4.6648   23.3394 O   0  0  0  0  0  0  0  0  0  0  0  0
    8.5955   -6.0705   17.3996 C   0  0  0  0  0  0  0  0  0  0  0  0
    4.6223   -8.3832   16.5030 C   0  0  0  0  0  0  0  0  0  0  0  0
   12.4690   -5.2624   19.9024 C   0  0  0  0  0  0  0  0  0  0  0  0
    3.2548   -9.9919   17.4189 C   0  0  0  0  0  0  0  0  0  0  0  0
   12.4767   -4.7393   22.1790 C   0  0  0  0  0  0  0  0  0  0  0  0
    7.8593   -5.3772   15.3569 N   0  0  0  0  0  0  0  0  0  0  0  0
    7.4412   -6.9038   16.9283 C   0  0  0  0  0  0  0  0  0  0  0  0
  1 21  4  0
  1 23  4  0
  2  5  1  0
  2 13  4  0
  2 16  4  0
  3  6  4  0
  3  7  4  0
  4 13  4  0
  4 19  4  0
  4 24  4  0
  6 23  4  0
  7 16  1  0
  7 21  4  0
  8 18  1  0
  9 20  4  0
  9 22  4  0
 10 17  1  0
 10 25  1  0
 11 16  4  0
 11 19  4  0
 12 15  4  0
 12 22  4  0
 14 24  4  0
 14 25  4  0
 15 17  4  0
 17 20  4  0
 18 23  1  0
 19 25  4  0
M  END
$$$$

 Created by Python create_sdf_string function

 25 28  0  0  0  0  0  0  0  0999 V2000
   13.1533   -5.2399   21.0682 C   0  0  0  0  0  0  0  0  0  0  0  0
   10.4729   -4.0295   17.6135 C   0  0  0  0  0  0  0  0  0  0  0  0
   10.4789   -4.3641   20.9564 C   0  0  0  0  0  0  0  0  0  0  0  0
    8.7421   -5.1412   16.3650 C   0  0  0  0  0  0  0  0  0  0  0  0
   11.4353   -2.9204   17.8044 C   0  0  0  0  0  0  0  0  0  0  0  0
   11.1529   -4.3028   22.1277 C   0  0  0  0  0  0  0  0  0  0  0  0
   11.1290   -4.8502   19.8052 C   0  0  0  0  0  0  0  0  0  0  0  0
   12.4329   -4.2159   24.4224 C   0  0  0  0  0  0  0  0  0  0  0  0
    3.4740   -9.0387   16.5022 C   0  0  0  0  0  0  0  0  0  0  0  0
    6.8384   -7.9290   17.5282 N   0  0  0  0  0  0  0  0  0  0  0  0
    9.4126   -5.9853   18.4899 C   0  0  0  0  0  0  0  0  0  0  0  0
    4.2064  -10.3242   18.3302 C   0  0  0  0  0  0  0  0  0  0  0  0
    9.6599   -4.1551   16.4796 N   0  0  0  0  0  0  0  0  0  0  0  0
    7.0644   -6.4612   15.7375 N   0  0  0  0  0  0  0  0  0  0  0  0
    5.3549   -9.6322   18.3190 C   0  0  0  0  0  0  0  0  0  0  0  0
   10.3704   -4.9638   18.6510 C   0  0  0  0  0  0  0  0  0  0  0  0
    5.5935   -8.6419   17.4234 C   0  0  0  0  0  0  0  0  0  0  0  0
   13.0726   -4.6648   23.3394 O   0  0  0  0  0  0  0  0  0  0  0  0
    8.5955   -6.0705   17.3996 C   0  0  0  0  0  0  0  0  0  0  0  0
    4.6223   -8.3832   16.5030 C   0  0  0  0  0  0  0  0  0  0  0  0
   12.4690   -5.2624   19.9024 C   0  0  0  0  0  0  0  0  0  0  0  0
    3.2548   -9.9919   17.4189 C   0  0  0  0  0  0  0  0  0  0  0  0
   12.4767   -4.7393   22.1790 C   0  0  0  0  0  0  0  0  0  0  0  0
    7.8593   -5.3772   15.3569 N   0  0  0  0  0  0  0  0  0  0  0  0
    7.4412   -6.9038   16.9283 C   0  0  0  0  0  0  0  0  0  0  0  0
  1 21  4  0
  1 23  4  0
  2  5  1  0
  2 13  4  0
  2 16  4  0
  3  6  4  0
  3  7  4  0
  4 13  4  0
  4 19  4  0
  4 24  4  0
  6 23  4  0
  7 16  1  0
  7 21  4  0
  8 18  1  0
  9 20  4  0
  9 22  4  0
 10 17  1  0
 10 25  1  0
 11 16  4  0
 11 19  4  0
 12 15  4  0
 12 22  4  0
 14 24  4  0
 14 25  4  0
 15 17  4  0
 17 20  4  0
 18 23  1  0
 19 25  4  0
M  END
$$$$

 Created by Python create_sdf_string function

 25 28  0  0  0  0  0  0  0  0999 V2000
   13.1533   -5.2399   21.0682 C   0  0  0  0  0  0  0  0  0  0  0  0
   10.4729   -4.0295   17.6135 C   0  0  0  0  0  0  0  0  0  0  0  0
   10.4789   -4.3641   20.9564 C   0  0  0  0  0  0  0  0  0  0  0  0
    8.7421   -5.1412   16.3650 C   0  0  0  0  0  0  0  0  0  0  0  0
   11.4353   -2.9204   17.8044 C   0  0  0  0  0  0  0  0  0  0  0  0
   11.1529   -4.3028   22.1277 C   0  0  0  0  0  0  0  0  0  0  0  0
   11.1290   -4.8502   19.8052 C   0  0  0  0  0  0  0  0  0  0  0  0
   12.4329   -4.2159   24.4224 C   0  0  0  0  0  0  0  0  0  0  0  0
    3.4740   -9.0387   16.5022 C   0  0  0  0  0  0  0  0  0  0  0  0
    6.8384   -7.9290   17.5282 N   0  0  0  0  0  0  0  0  0  0  0  0
    9.4126   -5.9853   18.4899 C   0  0  0  0  0  0  0  0  0  0  0  0
    4.2064  -10.3242   18.3302 C   0  0  0  0  0  0  0  0  0  0  0  0
    9.6599   -4.1551   16.4796 N   0  0  0  0  0  0  0  0  0  0  0  0
    7.0644   -6.4612   15.7375 N   0  0  0  0  0  0  0  0  0  0  0  0
    5.3549   -9.6322   18.3190 C   0  0  0  0  0  0  0  0  0  0  0  0
   10.3704   -4.9638   18.6510 C   0  0  0  0  0  0  0  0  0  0  0  0
    5.5935   -8.6419   17.4234 C   0  0  0  0  0  0  0  0  0  0  0  0
   13.0726   -4.6648   23.3394 O   0  0  0  0  0  0  0  0  0  0  0  0
    8.5955   -6.0705   17.3996 C   0  0  0  0  0  0  0  0  0  0  0  0
    4.6223   -8.3832   16.5030 C   0  0  0  0  0  0  0  0  0  0  0  0
   12.4690   -5.2624   19.9024 C   0  0  0  0  0  0  0  0  0  0  0  0
    3.2548   -9.9919   17.4189 C   0  0  0  0  0  0  0  0  0  0  0  0
   12.4767   -4.7393   22.1790 C   0  0  0  0  0  0  0  0  0  0  0  0
    7.8593   -5.3772   15.3569 N   0  0  0  0  0  0  0  0  0  0  0  0
    7.4412   -6.9038   16.9283 C   0  0  0  0  0  0  0  0  0  0  0  0
  1 21  4  0
  1 23  4  0
  2  5  1  0
  2 13  4  0
  2 16  4  0
  3  6  4  0
  3  7  4  0
  4 13  4  0
  4 19  4  0
  4 24  4  0
  6 23  4  0
  7 16  1  0
  7 21  4  0
  8 18  1  0
  9 20  4  0
  9 22  4  0
 10 17  1  0
 10 25  1  0
 11 16  4  0
 11 19  4  0
 12 15  4  0
 12 22  4  0
 14 24  4  0
 14 25  4  0
 15 17  4  0
 17 20  4  0
 18 23  1  0
 19 25  4  0
M  END
$$$$

 Created by Python create_sdf_string function

 25 28  0  0  0  0  0  0  0  0999 V2000
   13.1533   -5.2399   21.0682 C   0  0  0  0  0  0  0  0  0  0  0  0
   10.4729   -4.0295   17.6135 C   0  0  0  0  0  0  0  0  0  0  0  0
   10.4789   -4.3641   20.9564 C   0  0  0  0  0  0  0  0  0  0  0  0
    8.7421   -5.1412   16.3650 C   0  0  0  0  0  0  0  0  0  0  0  0
   11.4353   -2.9204   17.8044 C   0  0  0  0  0  0  0  0  0  0  0  0
   11.1529   -4.3028   22.1277 C   0  0  0  0  0  0  0  0  0  0  0  0
   11.1290   -4.8502   19.8052 C   0  0  0  0  0  0  0  0  0  0  0  0
   12.4329   -4.2159   24.4224 C   0  0  0  0  0  0  0  0  0  0  0  0
    3.4740   -9.0387   16.5022 C   0  0  0  0  0  0  0  0  0  0  0  0
    6.8384   -7.9290   17.5282 N   0  0  0  0  0  0  0  0  0  0  0  0
    9.4126   -5.9853   18.4899 C   0  0  0  0  0  0  0  0  0  0  0  0
    4.2064  -10.3242   18.3302 C   0  0  0  0  0  0  0  0  0  0  0  0
    9.6599   -4.1551   16.4796 N   0  0  0  0  0  0  0  0  0  0  0  0
    7.0644   -6.4612   15.7375 N   0  0  0  0  0  0  0  0  0  0  0  0
    5.3549   -9.6322   18.3190 C   0  0  0  0  0  0  0  0  0  0  0  0
   10.3704   -4.9638   18.6510 C   0  0  0  0  0  0  0  0  0  0  0  0
    5.5935   -8.6419   17.4234 C   0  0  0  0  0  0  0  0  0  0  0  0
   13.0726   -4.6648   23.3394 O   0  0  0  0  0  0  0  0  0  0  0  0
    8.5955   -6.0705   17.3996 C   0  0  0  0  0  0  0  0  0  0  0  0
    4.6223   -8.3832   16.5030 C   0  0  0  0  0  0  0  0  0  0  0  0
   12.4690   -5.2624   19.9024 C   0  0  0  0  0  0  0  0  0  0  0  0
    3.2548   -9.9919   17.4189 C   0  0  0  0  0  0  0  0  0  0  0  0
   12.4767   -4.7393   22.1790 C   0  0  0  0  0  0  0  0  0  0  0  0
    7.8593   -5.3772   15.3569 N   0  0  0  0  0  0  0  0  0  0  0  0
    7.4412   -6.9038   16.9283 C   0  0  0  0  0  0  0  0  0  0  0  0
  1 21  4  0
  1 23  4  0
  2  5  1  0
  2 13  4  0
  2 16  4  0
  3  6  4  0
  3  7  4  0
  4 13  4  0
  4 19  4  0
  4 24  4  0
  6 23  4  0
  7 16  1  0
  7 21  4  0
  8 18  1  0
  9 20  4  0
  9 22  4  0
 10 17  1  0
 10 25  1  0
 11 16  4  0
 11 19  4  0
 12 15  4  0
 12 22  4  0
 14 24  4  0
 14 25  4  0
 15 17  4  0
 17 20  4  0
 18 23  1  0
 19 25  4  0
M  END
$$$$

 Created by Python create_sdf_string function

 25 28  0  0  0  0  0  0  0  0999 V2000
   13.1533   -5.2399   21.0682 C   0  0  0  0  0  0  0  0  0  0  0  0
   10.4729   -4.0295   17.6135 C   0  0  0  0  0  0  0  0  0  0  0  0
   10.4789   -4.3641   20.9564 C   0  0  0  0  0  0  0  0  0  0  0  0
    8.7421   -5.1412   16.3650 C   0  0  0  0  0  0  0  0  0  0  0  0
   11.4353   -2.9204   17.8044 C   0  0  0  0  0  0  0  0  0  0  0  0
   11.1529   -4.3028   22.1277 C   0  0  0  0  0  0  0  0  0  0  0  0
   11.1290   -4.8502   19.8052 C   0  0  0  0  0  0  0  0  0  0  0  0
   12.4329   -4.2159   24.4224 C   0  0  0  0  0  0  0  0  0  0  0  0
    3.4740   -9.0387   16.5022 C   0  0  0  0  0  0  0  0  0  0  0  0
    6.8384   -7.9290   17.5282 N   0  0  0  0  0  0  0  0  0  0  0  0
    9.4126   -5.9853   18.4899 C   0  0  0  0  0  0  0  0  0  0  0  0
    4.2064  -10.3242   18.3302 C   0  0  0  0  0  0  0  0  0  0  0  0
    9.6599   -4.1551   16.4796 N   0  0  0  0  0  0  0  0  0  0  0  0
    7.0644   -6.4612   15.7375 N   0  0  0  0  0  0  0  0  0  0  0  0
    5.3549   -9.6322   18.3190 C   0  0  0  0  0  0  0  0  0  0  0  0
   10.3704   -4.9638   18.6510 C   0  0  0  0  0  0  0  0  0  0  0  0
    5.5935   -8.6419   17.4234 C   0  0  0  0  0  0  0  0  0  0  0  0
   13.0726   -4.6648   23.3394 O   0  0  0  0  0  0  0  0  0  0  0  0
    8.5955   -6.0705   17.3996 C   0  0  0  0  0  0  0  0  0  0  0  0
    4.6223   -8.3832   16.5030 C   0  0  0  0  0  0  0  0  0  0  0  0
   12.4690   -5.2624   19.9024 C   0  0  0  0  0  0  0  0  0  0  0  0
    3.2548   -9.9919   17.4189 C   0  0  0  0  0  0  0  0  0  0  0  0
   12.4767   -4.7393   22.1790 C   0  0  0  0  0  0  0  0  0  0  0  0
    7.8593   -5.3772   15.3569 N   0  0  0  0  0  0  0  0  0  0  0  0
    7.4412   -6.9038   16.9283 C   0  0  0  0  0  0  0  0  0  0  0  0
  1 21  4  0
  1 23  4  0
  2  5  1  0
  2 13  4  0
  2 16  4  0
  3  6  4  0
  3  7  4  0
  4 13  4  0
  4 19  4  0
  4 24  4  0
  6 23  4  0
  7 16  1  0
  7 21  4  0
  8 18  1  0
  9 20  4  0
  9 22  4  0
 10 17  1  0
 10 25  1  0
 11 16  4  0
 11 19  4  0
 12 15  4  0
 12 22  4  0
 14 24  4  0
 14 25  4  0
 15 17  4  0
 17 20  4  0
 18 23  1  0
 19 25  4  0
M  END
$$$$

 Created by Python create_sdf_string function

 25 28  0  0  0  0  0  0  0  0999 V2000
   13.1533   -5.2399   21.0682 C   0  0  0  0  0  0  0  0  0  0  0  0
   10.4729   -4.0295   17.6135 C   0  0  0  0  0  0  0  0  0  0  0  0
   10.4789   -4.3641   20.9564 C   0  0  0  0  0  0  0  0  0  0  0  0
    8.7421   -5.1412   16.3650 C   0  0  0  0  0  0  0  0  0  0  0  0
   11.4353   -2.9204   17.8044 C   0  0  0  0  0  0  0  0  0  0  0  0
   11.1529   -4.3028   22.1277 C   0  0  0  0  0  0  0  0  0  0  0  0
   11.1290   -4.8502   19.8052 C   0  0  0  0  0  0  0  0  0  0  0  0
   12.4329   -4.2159   24.4224 C   0  0  0  0  0  0  0  0  0  0  0  0
    3.4740   -9.0387   16.5022 C   0  0  0  0  0  0  0  0  0  0  0  0
    6.8384   -7.9290   17.5282 N   0  0  0  0  0  0  0  0  0  0  0  0
    9.4126   -5.9853   18.4899 C   0  0  0  0  0  0  0  0  0  0  0  0
    4.2064  -10.3242   18.3302 C   0  0  0  0  0  0  0  0  0  0  0  0
    9.6599   -4.1551   16.4796 N   0  0  0  0  0  0  0  0  0  0  0  0
    7.0644   -6.4612   15.7375 N   0  0  0  0  0  0  0  0  0  0  0  0
    5.3549   -9.6322   18.3190 C   0  0  0  0  0  0  0  0  0  0  0  0
   10.3704   -4.9638   18.6510 C   0  0  0  0  0  0  0  0  0  0  0  0
    5.5935   -8.6419   17.4234 C   0  0  0  0  0  0  0  0  0  0  0  0
   13.0726   -4.6648   23.3394 O   0  0  0  0  0  0  0  0  0  0  0  0
    8.5955   -6.0705   17.3996 C   0  0  0  0  0  0  0  0  0  0  0  0
    4.6223   -8.3832   16.5030 C   0  0  0  0  0  0  0  0  0  0  0  0
   12.4690   -5.2624   19.9024 C   0  0  0  0  0  0  0  0  0  0  0  0
    3.2548   -9.9919   17.4189 C   0  0  0  0  0  0  0  0  0  0  0  0
   12.4767   -4.7393   22.1790 C   0  0  0  0  0  0  0  0  0  0  0  0
    7.8593   -5.3772   15.3569 N   0  0  0  0  0  0  0  0  0  0  0  0
    7.4412   -6.9038   16.9283 C   0  0  0  0  0  0  0  0  0  0  0  0
  1 21  4  0
  1 23  4  0
  2  5  1  0
  2 13  4  0
  2 16  4  0
  3  6  4  0
  3  7  4  0
  4 13  4  0
  4 19  4  0
  4 24  4  0
  6 23  4  0
  7 16  1  0
  7 21  4  0
  8 18  1  0
  9 20  4  0
  9 22  4  0
 10 17  1  0
 10 25  1  0
 11 16  4  0
 11 19  4  0
 12 15  4  0
 12 22  4  0
 14 24  4  0
 14 25  4  0
 15 17  4  0
 17 20  4  0
 18 23  1  0
 19 25  4  0
M  END
$$$$

 Created by Python create_sdf_string function

 25 28  0  0  0  0  0  0  0  0999 V2000
   13.1533   -5.2399   21.0682 C   0  0  0  0  0  0  0  0  0  0  0  0
   10.4729   -4.0295   17.6135 C   0  0  0  0  0  0  0  0  0  0  0  0
   10.4789   -4.3641   20.9564 C   0  0  0  0  0  0  0  0  0  0  0  0
    8.7421   -5.1412   16.3650 C   0  0  0  0  0  0  0  0  0  0  0  0
   11.4353   -2.9204   17.8044 C   0  0  0  0  0  0  0  0  0  0  0  0
   11.1529   -4.3028   22.1277 C   0  0  0  0  0  0  0  0  0  0  0  0
   11.1290   -4.8502   19.8052 C   0  0  0  0  0  0  0  0  0  0  0  0
   12.4329   -4.2159   24.4224 C   0  0  0  0  0  0  0  0  0  0  0  0
    3.4740   -9.0387   16.5022 C   0  0  0  0  0  0  0  0  0  0  0  0
    6.8384   -7.9290   17.5282 N   0  0  0  0  0  0  0  0  0  0  0  0
    9.4126   -5.9853   18.4899 C   0  0  0  0  0  0  0  0  0  0  0  0
    4.2064  -10.3242   18.3302 C   0  0  0  0  0  0  0  0  0  0  0  0
    9.6599   -4.1551   16.4796 N   0  0  0  0  0  0  0  0  0  0  0  0
    7.0644   -6.4612   15.7375 N   0  0  0  0  0  0  0  0  0  0  0  0
    5.3549   -9.6322   18.3190 C   0  0  0  0  0  0  0  0  0  0  0  0
   10.3704   -4.9638   18.6510 C   0  0  0  0  0  0  0  0  0  0  0  0
    5.5935   -8.6419   17.4234 C   0  0  0  0  0  0  0  0  0  0  0  0
   13.0726   -4.6648   23.3394 O   0  0  0  0  0  0  0  0  0  0  0  0
    8.5955   -6.0705   17.3996 C   0  0  0  0  0  0  0  0  0  0  0  0
    4.6223   -8.3832   16.5030 C   0  0  0  0  0  0  0  0  0  0  0  0
   12.4690   -5.2624   19.9024 C   0  0  0  0  0  0  0  0  0  0  0  0
    3.2548   -9.9919   17.4189 C   0  0  0  0  0  0  0  0  0  0  0  0
   12.4767   -4.7393   22.1790 C   0  0  0  0  0  0  0  0  0  0  0  0
    7.8593   -5.3772   15.3569 N   0  0  0  0  0  0  0  0  0  0  0  0
    7.4412   -6.9038   16.9283 C   0  0  0  0  0  0  0  0  0  0  0  0
  1 21  4  0
  1 23  4  0
  2  5  1  0
  2 13  4  0
  2 16  4  0
  3  6  4  0
  3  7  4  0
  4 13  4  0
  4 19  4  0
  4 24  4  0
  6 23  4  0
  7 16  1  0
  7 21  4  0
  8 18  1  0
  9 20  4  0
  9 22  4  0
 10 17  1  0
 10 25  1  0
 11 16  4  0
 11 19  4  0
 12 15  4  0
 12 22  4  0
 14 24  4  0
 14 25  4  0
 15 17  4  0
 17 20  4  0
 18 23  1  0
 19 25  4  0
M  END
$$$$

 Created by Python create_sdf_string function

 25 28  0  0  0  0  0  0  0  0999 V2000
   13.1533   -5.2399   21.0682 C   0  0  0  0  0  0  0  0  0  0  0  0
   10.4729   -4.0295   17.6135 C   0  0  0  0  0  0  0  0  0  0  0  0
   10.4789   -4.3641   20.9564 C   0  0  0  0  0  0  0  0  0  0  0  0
    8.7421   -5.1412   16.3650 C   0  0  0  0  0  0  0  0  0  0  0  0
   11.4353   -2.9204   17.8044 C   0  0  0  0  0  0  0  0  0  0  0  0
   11.1529   -4.3028   22.1277 C   0  0  0  0  0  0  0  0  0  0  0  0
   11.1290   -4.8502   19.8052 C   0  0  0  0  0  0  0  0  0  0  0  0
   12.4329   -4.2159   24.4224 C   0  0  0  0  0  0  0  0  0  0  0  0
    3.4740   -9.0387   16.5022 C   0  0  0  0  0  0  0  0  0  0  0  0
    6.8384   -7.9290   17.5282 N   0  0  0  0  0  0  0  0  0  0  0  0
    9.4126   -5.9853   18.4899 C   0  0  0  0  0  0  0  0  0  0  0  0
    4.2064  -10.3242   18.3302 C   0  0  0  0  0  0  0  0  0  0  0  0
    9.6599   -4.1551   16.4796 N   0  0  0  0  0  0  0  0  0  0  0  0
    7.0644   -6.4612   15.7375 N   0  0  0  0  0  0  0  0  0  0  0  0
    5.3549   -9.6322   18.3190 C   0  0  0  0  0  0  0  0  0  0  0  0
   10.3704   -4.9638   18.6510 C   0  0  0  0  0  0  0  0  0  0  0  0
    5.5935   -8.6419   17.4234 C   0  0  0  0  0  0  0  0  0  0  0  0
   13.0726   -4.6648   23.3394 O   0  0  0  0  0  0  0  0  0  0  0  0
    8.5955   -6.0705   17.3996 C   0  0  0  0  0  0  0  0  0  0  0  0
    4.6223   -8.3832   16.5030 C   0  0  0  0  0  0  0  0  0  0  0  0
   12.4690   -5.2624   19.9024 C   0  0  0  0  0  0  0  0  0  0  0  0
    3.2548   -9.9919   17.4189 C   0  0  0  0  0  0  0  0  0  0  0  0
   12.4767   -4.7393   22.1790 C   0  0  0  0  0  0  0  0  0  0  0  0
    7.8593   -5.3772   15.3569 N   0  0  0  0  0  0  0  0  0  0  0  0
    7.4412   -6.9038   16.9283 C   0  0  0  0  0  0  0  0  0  0  0  0
  1 21  4  0
  1 23  4  0
  2  5  1  0
  2 13  4  0
  2 16  4  0
  3  6  4  0
  3  7  4  0
  4 13  4  0
  4 19  4  0
  4 24  4  0
  6 23  4  0
  7 16  1  0
  7 21  4  0
  8 18  1  0
  9 20  4  0
  9 22  4  0
 10 17  1  0
 10 25  1  0
 11 16  4  0
 11 19  4  0
 12 15  4  0
 12 22  4  0
 14 24  4  0
 14 25  4  0
 15 17  4  0
 17 20  4  0
 18 23  1  0
 19 25  4  0
M  END
$$$$

 Created by Python create_sdf_string function

 25 28  0  0  0  0  0  0  0  0999 V2000
   13.1533   -5.2399   21.0682 C   0  0  0  0  0  0  0  0  0  0  0  0
   10.4729   -4.0295   17.6135 C   0  0  0  0  0  0  0  0  0  0  0  0
   10.4789   -4.3641   20.9564 C   0  0  0  0  0  0  0  0  0  0  0  0
    8.7421   -5.1412   16.3650 C   0  0  0  0  0  0  0  0  0  0  0  0
   11.4353   -2.9204   17.8044 C   0  0  0  0  0  0  0  0  0  0  0  0
   11.1529   -4.3028   22.1277 C   0  0  0  0  0  0  0  0  0  0  0  0
   11.1290   -4.8502   19.8052 C   0  0  0  0  0  0  0  0  0  0  0  0
   12.4329   -4.2159   24.4224 C   0  0  0  0  0  0  0  0  0  0  0  0
    3.4740   -9.0387   16.5022 C   0  0  0  0  0  0  0  0  0  0  0  0
    6.8384   -7.9290   17.5282 N   0  0  0  0  0  0  0  0  0  0  0  0
    9.4126   -5.9853   18.4899 C   0  0  0  0  0  0  0  0  0  0  0  0
    4.2064  -10.3242   18.3302 C   0  0  0  0  0  0  0  0  0  0  0  0
    9.6599   -4.1551   16.4796 N   0  0  0  0  0  0  0  0  0  0  0  0
    7.0644   -6.4612   15.7375 N   0  0  0  0  0  0  0  0  0  0  0  0
    5.3549   -9.6322   18.3190 C   0  0  0  0  0  0  0  0  0  0  0  0
   10.3704   -4.9638   18.6510 C   0  0  0  0  0  0  0  0  0  0  0  0
    5.5935   -8.6419   17.4234 C   0  0  0  0  0  0  0  0  0  0  0  0
   13.0726   -4.6648   23.3394 O   0  0  0  0  0  0  0  0  0  0  0  0
    8.5955   -6.0705   17.3996 C   0  0  0  0  0  0  0  0  0  0  0  0
    4.6223   -8.3832   16.5030 C   0  0  0  0  0  0  0  0  0  0  0  0
   12.4690   -5.2624   19.9024 C   0  0  0  0  0  0  0  0  0  0  0  0
    3.2548   -9.9919   17.4189 C   0  0  0  0  0  0  0  0  0  0  0  0
   12.4767   -4.7393   22.1790 C   0  0  0  0  0  0  0  0  0  0  0  0
    7.8593   -5.3772   15.3569 N   0  0  0  0  0  0  0  0  0  0  0  0
    7.4412   -6.9038   16.9283 C   0  0  0  0  0  0  0  0  0  0  0  0
  1 21  4  0
  1 23  4  0
  2  5  1  0
  2 13  4  0
  2 16  4  0
  3  6  4  0
  3  7  4  0
  4 13  4  0
  4 19  4  0
  4 24  4  0
  6 23  4  0
  7 16  1  0
  7 21  4  0
  8 18  1  0
  9 20  4  0
  9 22  4  0
 10 17  1  0
 10 25  1  0
 11 16  4  0
 11 19  4  0
 12 15  4  0
 12 22  4  0
 14 24  4  0
 14 25  4  0
 15 17  4  0
 17 20  4  0
 18 23  1  0
 19 25  4  0
M  END
$$$$

 Created by Python create_sdf_string function

 25 28  0  0  0  0  0  0  0  0999 V2000
   13.1533   -5.2399   21.0682 C   0  0  0  0  0  0  0  0  0  0  0  0
   10.4729   -4.0295   17.6135 C   0  0  0  0  0  0  0  0  0  0  0  0
   10.4789   -4.3641   20.9564 C   0  0  0  0  0  0  0  0  0  0  0  0
    8.7421   -5.1412   16.3650 C   0  0  0  0  0  0  0  0  0  0  0  0
   11.4353   -2.9204   17.8044 C   0  0  0  0  0  0  0  0  0  0  0  0
   11.1529   -4.3028   22.1277 C   0  0  0  0  0  0  0  0  0  0  0  0
   11.1290   -4.8502   19.8052 C   0  0  0  0  0  0  0  0  0  0  0  0
   12.4329   -4.2159   24.4224 C   0  0  0  0  0  0  0  0  0  0  0  0
    3.4740   -9.0387   16.5022 C   0  0  0  0  0  0  0  0  0  0  0  0
    6.8384   -7.9290   17.5282 N   0  0  0  0  0  0  0  0  0  0  0  0
    9.4126   -5.9853   18.4899 C   0  0  0  0  0  0  0  0  0  0  0  0
    4.2064  -10.3242   18.3302 C   0  0  0  0  0  0  0  0  0  0  0  0
    9.6599   -4.1551   16.4796 N   0  0  0  0  0  0  0  0  0  0  0  0
    7.0644   -6.4612   15.7375 N   0  0  0  0  0  0  0  0  0  0  0  0
    5.3549   -9.6322   18.3190 C   0  0  0  0  0  0  0  0  0  0  0  0
   10.3704   -4.9638   18.6510 C   0  0  0  0  0  0  0  0  0  0  0  0
    5.5935   -8.6419   17.4234 C   0  0  0  0  0  0  0  0  0  0  0  0
   13.0726   -4.6648   23.3394 O   0  0  0  0  0  0  0  0  0  0  0  0
    8.5955   -6.0705   17.3996 C   0  0  0  0  0  0  0  0  0  0  0  0
    4.6223   -8.3832   16.5030 C   0  0  0  0  0  0  0  0  0  0  0  0
   12.4690   -5.2624   19.9024 C   0  0  0  0  0  0  0  0  0  0  0  0
    3.2548   -9.9919   17.4189 C   0  0  0  0  0  0  0  0  0  0  0  0
   12.4767   -4.7393   22.1790 C   0  0  0  0  0  0  0  0  0  0  0  0
    7.8593   -5.3772   15.3569 N   0  0  0  0  0  0  0  0  0  0  0  0
    7.4412   -6.9038   16.9283 C   0  0  0  0  0  0  0  0  0  0  0  0
  1 21  4  0
  1 23  4  0
  2  5  1  0
  2 13  4  0
  2 16  4  0
  3  6  4  0
  3  7  4  0
  4 13  4  0
  4 19  4  0
  4 24  4  0
  6 23  4  0
  7 16  1  0
  7 21  4  0
  8 18  1  0
  9 20  4  0
  9 22  4  0
 10 17  1  0
 10 25  1  0
 11 16  4  0
 11 19  4  0
 12 15  4  0
 12 22  4  0
 14 24  4  0
 14 25  4  0
 15 17  4  0
 17 20  4  0
 18 23  1  0
 19 25  4  0
M  END
$$$$

 Created by Python create_sdf_string function

 25 28  0  0  0  0  0  0  0  0999 V2000
   13.1533   -5.2399   21.0682 C   0  0  0  0  0  0  0  0  0  0  0  0
   10.4729   -4.0295   17.6135 C   0  0  0  0  0  0  0  0  0  0  0  0
   10.4789   -4.3641   20.9564 C   0  0  0  0  0  0  0  0  0  0  0  0
    8.7421   -5.1412   16.3650 C   0  0  0  0  0  0  0  0  0  0  0  0
   11.4353   -2.9204   17.8044 C   0  0  0  0  0  0  0  0  0  0  0  0
   11.1529   -4.3028   22.1277 C   0  0  0  0  0  0  0  0  0  0  0  0
   11.1290   -4.8502   19.8052 C   0  0  0  0  0  0  0  0  0  0  0  0
   12.4329   -4.2159   24.4224 C   0  0  0  0  0  0  0  0  0  0  0  0
    3.4740   -9.0387   16.5022 C   0  0  0  0  0  0  0  0  0  0  0  0
    6.8384   -7.9290   17.5282 N   0  0  0  0  0  0  0  0  0  0  0  0
    9.4126   -5.9853   18.4899 C   0  0  0  0  0  0  0  0  0  0  0  0
    4.2064  -10.3242   18.3302 C   0  0  0  0  0  0  0  0  0  0  0  0
    9.6599   -4.1551   16.4796 N   0  0  0  0  0  0  0  0  0  0  0  0
    7.0644   -6.4612   15.7375 N   0  0  0  0  0  0  0  0  0  0  0  0
    5.3549   -9.6322   18.3190 C   0  0  0  0  0  0  0  0  0  0  0  0
   10.3704   -4.9638   18.6510 C   0  0  0  0  0  0  0  0  0  0  0  0
    5.5935   -8.6419   17.4234 C   0  0  0  0  0  0  0  0  0  0  0  0
   13.0726   -4.6648   23.3394 O   0  0  0  0  0  0  0  0  0  0  0  0
    8.5955   -6.0705   17.3996 C   0  0  0  0  0  0  0  0  0  0  0  0
    4.6223   -8.3832   16.5030 C   0  0  0  0  0  0  0  0  0  0  0  0
   12.4690   -5.2624   19.9024 C   0  0  0  0  0  0  0  0  0  0  0  0
    3.2548   -9.9919   17.4189 C   0  0  0  0  0  0  0  0  0  0  0  0
   12.4767   -4.7393   22.1790 C   0  0  0  0  0  0  0  0  0  0  0  0
    7.8593   -5.3772   15.3569 N   0  0  0  0  0  0  0  0  0  0  0  0
    7.4412   -6.9038   16.9283 C   0  0  0  0  0  0  0  0  0  0  0  0
  1 21  4  0
  1 23  4  0
  2  5  1  0
  2 13  4  0
  2 16  4  0
  3  6  4  0
  3  7  4  0
  4 13  4  0
  4 19  4  0
  4 24  4  0
  6 23  4  0
  7 16  1  0
  7 21  4  0
  8 18  1  0
  9 20  4  0
  9 22  4  0
 10 17  1  0
 10 25  1  0
 11 16  4  0
 11 19  4  0
 12 15  4  0
 12 22  4  0
 14 24  4  0
 14 25  4  0
 15 17  4  0
 17 20  4  0
 18 23  1  0
 19 25  4  0
M  END
$$$$

 Created by Python create_sdf_string function

 25 28  0  0  0  0  0  0  0  0999 V2000
   13.1533   -5.2399   21.0682 C   0  0  0  0  0  0  0  0  0  0  0  0
   10.4729   -4.0295   17.6135 C   0  0  0  0  0  0  0  0  0  0  0  0
   10.4789   -4.3641   20.9564 C   0  0  0  0  0  0  0  0  0  0  0  0
    8.7421   -5.1412   16.3650 C   0  0  0  0  0  0  0  0  0  0  0  0
   11.4353   -2.9204   17.8044 C   0  0  0  0  0  0  0  0  0  0  0  0
   11.1529   -4.3028   22.1277 C   0  0  0  0  0  0  0  0  0  0  0  0
   11.1290   -4.8502   19.8052 C   0  0  0  0  0  0  0  0  0  0  0  0
   12.4329   -4.2159   24.4224 C   0  0  0  0  0  0  0  0  0  0  0  0
    3.4740   -9.0387   16.5022 C   0  0  0  0  0  0  0  0  0  0  0  0
    6.8384   -7.9290   17.5282 N   0  0  0  0  0  0  0  0  0  0  0  0
    9.4126   -5.9853   18.4899 C   0  0  0  0  0  0  0  0  0  0  0  0
    4.2064  -10.3242   18.3302 C   0  0  0  0  0  0  0  0  0  0  0  0
    9.6599   -4.1551   16.4796 N   0  0  0  0  0  0  0  0  0  0  0  0
    7.0644   -6.4612   15.7375 N   0  0  0  0  0  0  0  0  0  0  0  0
    5.3549   -9.6322   18.3190 C   0  0  0  0  0  0  0  0  0  0  0  0
   10.3704   -4.9638   18.6510 C   0  0  0  0  0  0  0  0  0  0  0  0
    5.5935   -8.6419   17.4234 C   0  0  0  0  0  0  0  0  0  0  0  0
   13.0726   -4.6648   23.3394 O   0  0  0  0  0  0  0  0  0  0  0  0
    8.5955   -6.0705   17.3996 C   0  0  0  0  0  0  0  0  0  0  0  0
    4.6223   -8.3832   16.5030 C   0  0  0  0  0  0  0  0  0  0  0  0
   12.4690   -5.2624   19.9024 C   0  0  0  0  0  0  0  0  0  0  0  0
    3.2548   -9.9919   17.4189 C   0  0  0  0  0  0  0  0  0  0  0  0
   12.4767   -4.7393   22.1790 C   0  0  0  0  0  0  0  0  0  0  0  0
    7.8593   -5.3772   15.3569 N   0  0  0  0  0  0  0  0  0  0  0  0
    7.4412   -6.9038   16.9283 C   0  0  0  0  0  0  0  0  0  0  0  0
  1 21  4  0
  1 23  4  0
  2  5  1  0
  2 13  4  0
  2 16  4  0
  3  6  4  0
  3  7  4  0
  4 13  4  0
  4 19  4  0
  4 24  4  0
  6 23  4  0
  7 16  1  0
  7 21  4  0
  8 18  1  0
  9 20  4  0
  9 22  4  0
 10 17  1  0
 10 25  1  0
 11 16  4  0
 11 19  4  0
 12 15  4  0
 12 22  4  0
 14 24  4  0
 14 25  4  0
 15 17  4  0
 17 20  4  0
 18 23  1  0
 19 25  4  0
M  END
$$$$

 Created by Python create_sdf_string function

 25 28  0  0  0  0  0  0  0  0999 V2000
   13.1533   -5.2399   21.0682 C   0  0  0  0  0  0  0  0  0  0  0  0
   10.4729   -4.0295   17.6135 C   0  0  0  0  0  0  0  0  0  0  0  0
   10.4789   -4.3641   20.9564 C   0  0  0  0  0  0  0  0  0  0  0  0
    8.7421   -5.1412   16.3650 C   0  0  0  0  0  0  0  0  0  0  0  0
   11.4353   -2.9204   17.8044 C   0  0  0  0  0  0  0  0  0  0  0  0
   11.1529   -4.3028   22.1277 C   0  0  0  0  0  0  0  0  0  0  0  0
   11.1290   -4.8502   19.8052 C   0  0  0  0  0  0  0  0  0  0  0  0
   12.4329   -4.2159   24.4224 C   0  0  0  0  0  0  0  0  0  0  0  0
    3.4740   -9.0387   16.5022 C   0  0  0  0  0  0  0  0  0  0  0  0
    6.8384   -7.9290   17.5282 N   0  0  0  0  0  0  0  0  0  0  0  0
    9.4126   -5.9853   18.4899 C   0  0  0  0  0  0  0  0  0  0  0  0
    4.2064  -10.3242   18.3302 C   0  0  0  0  0  0  0  0  0  0  0  0
    9.6599   -4.1551   16.4796 N   0  0  0  0  0  0  0  0  0  0  0  0
    7.0644   -6.4612   15.7375 N   0  0  0  0  0  0  0  0  0  0  0  0
    5.3549   -9.6322   18.3190 C   0  0  0  0  0  0  0  0  0  0  0  0
   10.3704   -4.9638   18.6510 C   0  0  0  0  0  0  0  0  0  0  0  0
    5.5935   -8.6419   17.4234 C   0  0  0  0  0  0  0  0  0  0  0  0
   13.0726   -4.6648   23.3394 O   0  0  0  0  0  0  0  0  0  0  0  0
    8.5955   -6.0705   17.3996 C   0  0  0  0  0  0  0  0  0  0  0  0
    4.6223   -8.3832   16.5030 C   0  0  0  0  0  0  0  0  0  0  0  0
   12.4690   -5.2624   19.9024 C   0  0  0  0  0  0  0  0  0  0  0  0
    3.2548   -9.9919   17.4189 C   0  0  0  0  0  0  0  0  0  0  0  0
   12.4767   -4.7393   22.1790 C   0  0  0  0  0  0  0  0  0  0  0  0
    7.8593   -5.3772   15.3569 N   0  0  0  0  0  0  0  0  0  0  0  0
    7.4412   -6.9038   16.9283 C   0  0  0  0  0  0  0  0  0  0  0  0
  1 21  4  0
  1 23  4  0
  2  5  1  0
  2 13  4  0
  2 16  4  0
  3  6  4  0
  3  7  4  0
  4 13  4  0
  4 19  4  0
  4 24  4  0
  6 23  4  0
  7 16  1  0
  7 21  4  0
  8 18  1  0
  9 20  4  0
  9 22  4  0
 10 17  1  0
 10 25  1  0
 11 16  4  0
 11 19  4  0
 12 15  4  0
 12 22  4  0
 14 24  4  0
 14 25  4  0
 15 17  4  0
 17 20  4  0
 18 23  1  0
 19 25  4  0
M  END
$$$$

 Created by Python create_sdf_string function

 25 28  0  0  0  0  0  0  0  0999 V2000
   13.1533   -5.2399   21.0682 C   0  0  0  0  0  0  0  0  0  0  0  0
   10.4729   -4.0295   17.6135 C   0  0  0  0  0  0  0  0  0  0  0  0
   10.4789   -4.3641   20.9564 C   0  0  0  0  0  0  0  0  0  0  0  0
    8.7421   -5.1412   16.3650 C   0  0  0  0  0  0  0  0  0  0  0  0
   11.4353   -2.9204   17.8044 C   0  0  0  0  0  0  0  0  0  0  0  0
   11.1529   -4.3028   22.1277 C   0  0  0  0  0  0  0  0  0  0  0  0
   11.1290   -4.8502   19.8052 C   0  0  0  0  0  0  0  0  0  0  0  0
   12.4329   -4.2159   24.4224 C   0  0  0  0  0  0  0  0  0  0  0  0
    3.4740   -9.0387   16.5022 C   0  0  0  0  0  0  0  0  0  0  0  0
    6.8384   -7.9290   17.5282 N   0  0  0  0  0  0  0  0  0  0  0  0
    9.4126   -5.9853   18.4899 C   0  0  0  0  0  0  0  0  0  0  0  0
    4.2064  -10.3242   18.3302 C   0  0  0  0  0  0  0  0  0  0  0  0
    9.6599   -4.1551   16.4796 N   0  0  0  0  0  0  0  0  0  0  0  0
    7.0644   -6.4612   15.7375 N   0  0  0  0  0  0  0  0  0  0  0  0
    5.3549   -9.6322   18.3190 C   0  0  0  0  0  0  0  0  0  0  0  0
   10.3704   -4.9638   18.6510 C   0  0  0  0  0  0  0  0  0  0  0  0
    5.5935   -8.6419   17.4234 C   0  0  0  0  0  0  0  0  0  0  0  0
   13.0726   -4.6648   23.3394 O   0  0  0  0  0  0  0  0  0  0  0  0
    8.5955   -6.0705   17.3996 C   0  0  0  0  0  0  0  0  0  0  0  0
    4.6223   -8.3832   16.5030 C   0  0  0  0  0  0  0  0  0  0  0  0
   12.4690   -5.2624   19.9024 C   0  0  0  0  0  0  0  0  0  0  0  0
    3.2548   -9.9919   17.4189 C   0  0  0  0  0  0  0  0  0  0  0  0
   12.4767   -4.7393   22.1790 C   0  0  0  0  0  0  0  0  0  0  0  0
    7.8593   -5.3772   15.3569 N   0  0  0  0  0  0  0  0  0  0  0  0
    7.4412   -6.9038   16.9283 C   0  0  0  0  0  0  0  0  0  0  0  0
  1 21  4  0
  1 23  4  0
  2  5  1  0
  2 13  4  0
  2 16  4  0
  3  6  4  0
  3  7  4  0
  4 13  4  0
  4 19  4  0
  4 24  4  0
  6 23  4  0
  7 16  1  0
  7 21  4  0
  8 18  1  0
  9 20  4  0
  9 22  4  0
 10 17  1  0
 10 25  1  0
 11 16  4  0
 11 19  4  0
 12 15  4  0
 12 22  4  0
 14 24  4  0
 14 25  4  0
 15 17  4  0
 17 20  4  0
 18 23  1  0
 19 25  4  0
M  END
$$$$

 Created by Python create_sdf_string function

 25 28  0  0  0  0  0  0  0  0999 V2000
   13.1533   -5.2399   21.0682 C   0  0  0  0  0  0  0  0  0  0  0  0
   10.4729   -4.0295   17.6135 C   0  0  0  0  0  0  0  0  0  0  0  0
   10.4789   -4.3641   20.9564 C   0  0  0  0  0  0  0  0  0  0  0  0
    8.7421   -5.1412   16.3650 C   0  0  0  0  0  0  0  0  0  0  0  0
   11.4353   -2.9204   17.8044 C   0  0  0  0  0  0  0  0  0  0  0  0
   11.1529   -4.3028   22.1277 C   0  0  0  0  0  0  0  0  0  0  0  0
   11.1290   -4.8502   19.8052 C   0  0  0  0  0  0  0  0  0  0  0  0
   12.4329   -4.2159   24.4224 C   0  0  0  0  0  0  0  0  0  0  0  0
    3.4740   -9.0387   16.5022 C   0  0  0  0  0  0  0  0  0  0  0  0
    6.8384   -7.9290   17.5282 N   0  0  0  0  0  0  0  0  0  0  0  0
    9.4126   -5.9853   18.4899 C   0  0  0  0  0  0  0  0  0  0  0  0
    4.2064  -10.3242   18.3302 C   0  0  0  0  0  0  0  0  0  0  0  0
    9.6599   -4.1551   16.4796 N   0  0  0  0  0  0  0  0  0  0  0  0
    7.0644   -6.4612   15.7375 N   0  0  0  0  0  0  0  0  0  0  0  0
    5.3549   -9.6322   18.3190 C   0  0  0  0  0  0  0  0  0  0  0  0
   10.3704   -4.9638   18.6510 C   0  0  0  0  0  0  0  0  0  0  0  0
    5.5935   -8.6419   17.4234 C   0  0  0  0  0  0  0  0  0  0  0  0
   13.0726   -4.6648   23.3394 O   0  0  0  0  0  0  0  0  0  0  0  0
    8.5955   -6.0705   17.3996 C   0  0  0  0  0  0  0  0  0  0  0  0
    4.6223   -8.3832   16.5030 C   0  0  0  0  0  0  0  0  0  0  0  0
   12.4690   -5.2624   19.9024 C   0  0  0  0  0  0  0  0  0  0  0  0
    3.2548   -9.9919   17.4189 C   0  0  0  0  0  0  0  0  0  0  0  0
   12.4767   -4.7393   22.1790 C   0  0  0  0  0  0  0  0  0  0  0  0
    7.8593   -5.3772   15.3569 N   0  0  0  0  0  0  0  0  0  0  0  0
    7.4412   -6.9038   16.9283 C   0  0  0  0  0  0  0  0  0  0  0  0
  1 21  4  0
  1 23  4  0
  2  5  1  0
  2 13  4  0
  2 16  4  0
  3  6  4  0
  3  7  4  0
  4 13  4  0
  4 19  4  0
  4 24  4  0
  6 23  4  0
  7 16  1  0
  7 21  4  0
  8 18  1  0
  9 20  4  0
  9 22  4  0
 10 17  1  0
 10 25  1  0
 11 16  4  0
 11 19  4  0
 12 15  4  0
 12 22  4  0
 14 24  4  0
 14 25  4  0
 15 17  4  0
 17 20  4  0
 18 23  1  0
 19 25  4  0
M  END
$$$$

 Created by Python create_sdf_string function

 25 28  0  0  0  0  0  0  0  0999 V2000
   13.1533   -5.2399   21.0682 C   0  0  0  0  0  0  0  0  0  0  0  0
   10.4729   -4.0295   17.6135 C   0  0  0  0  0  0  0  0  0  0  0  0
   10.4789   -4.3641   20.9564 C   0  0  0  0  0  0  0  0  0  0  0  0
    8.7421   -5.1412   16.3650 C   0  0  0  0  0  0  0  0  0  0  0  0
   11.4353   -2.9204   17.8044 C   0  0  0  0  0  0  0  0  0  0  0  0
   11.1529   -4.3028   22.1277 C   0  0  0  0  0  0  0  0  0  0  0  0
   11.1290   -4.8502   19.8052 C   0  0  0  0  0  0  0  0  0  0  0  0
   12.4329   -4.2159   24.4224 C   0  0  0  0  0  0  0  0  0  0  0  0
    3.4740   -9.0387   16.5022 C   0  0  0  0  0  0  0  0  0  0  0  0
    6.8384   -7.9290   17.5282 N   0  0  0  0  0  0  0  0  0  0  0  0
    9.4126   -5.9853   18.4899 C   0  0  0  0  0  0  0  0  0  0  0  0
    4.2064  -10.3242   18.3302 C   0  0  0  0  0  0  0  0  0  0  0  0
    9.6599   -4.1551   16.4796 N   0  0  0  0  0  0  0  0  0  0  0  0
    7.0644   -6.4612   15.7375 N   0  0  0  0  0  0  0  0  0  0  0  0
    5.3549   -9.6322   18.3190 C   0  0  0  0  0  0  0  0  0  0  0  0
   10.3704   -4.9638   18.6510 C   0  0  0  0  0  0  0  0  0  0  0  0
    5.5935   -8.6419   17.4234 C   0  0  0  0  0  0  0  0  0  0  0  0
   13.0726   -4.6648   23.3394 O   0  0  0  0  0  0  0  0  0  0  0  0
    8.5955   -6.0705   17.3996 C   0  0  0  0  0  0  0  0  0  0  0  0
    4.6223   -8.3832   16.5030 C   0  0  0  0  0  0  0  0  0  0  0  0
   12.4690   -5.2624   19.9024 C   0  0  0  0  0  0  0  0  0  0  0  0
    3.2548   -9.9919   17.4189 C   0  0  0  0  0  0  0  0  0  0  0  0
   12.4767   -4.7393   22.1790 C   0  0  0  0  0  0  0  0  0  0  0  0
    7.8593   -5.3772   15.3569 N   0  0  0  0  0  0  0  0  0  0  0  0
    7.4412   -6.9038   16.9283 C   0  0  0  0  0  0  0  0  0  0  0  0
  1 21  4  0
  1 23  4  0
  2  5  1  0
  2 13  4  0
  2 16  4  0
  3  6  4  0
  3  7  4  0
  4 13  4  0
  4 19  4  0
  4 24  4  0
  6 23  4  0
  7 16  1  0
  7 21  4  0
  8 18  1  0
  9 20  4  0
  9 22  4  0
 10 17  1  0
 10 25  1  0
 11 16  4  0
 11 19  4  0
 12 15  4  0
 12 22  4  0
 14 24  4  0
 14 25  4  0
 15 17  4  0
 17 20  4  0
 18 23  1  0
 19 25  4  0
M  END
$$$$

 Created by Python create_sdf_string function

 25 28  0  0  0  0  0  0  0  0999 V2000
   13.1533   -5.2399   21.0682 C   0  0  0  0  0  0  0  0  0  0  0  0
   10.4729   -4.0295   17.6135 C   0  0  0  0  0  0  0  0  0  0  0  0
   10.4789   -4.3641   20.9564 C   0  0  0  0  0  0  0  0  0  0  0  0
    8.7421   -5.1412   16.3650 C   0  0  0  0  0  0  0  0  0  0  0  0
   11.4353   -2.9204   17.8044 C   0  0  0  0  0  0  0  0  0  0  0  0
   11.1529   -4.3028   22.1277 C   0  0  0  0  0  0  0  0  0  0  0  0
   11.1290   -4.8502   19.8052 C   0  0  0  0  0  0  0  0  0  0  0  0
   12.4329   -4.2159   24.4224 C   0  0  0  0  0  0  0  0  0  0  0  0
    3.4740   -9.0387   16.5022 C   0  0  0  0  0  0  0  0  0  0  0  0
    6.8384   -7.9290   17.5282 N   0  0  0  0  0  0  0  0  0  0  0  0
    9.4126   -5.9853   18.4899 C   0  0  0  0  0  0  0  0  0  0  0  0
    4.2064  -10.3242   18.3302 C   0  0  0  0  0  0  0  0  0  0  0  0
    9.6599   -4.1551   16.4796 N   0  0  0  0  0  0  0  0  0  0  0  0
    7.0644   -6.4612   15.7375 N   0  0  0  0  0  0  0  0  0  0  0  0
    5.3549   -9.6322   18.3190 C   0  0  0  0  0  0  0  0  0  0  0  0
   10.3704   -4.9638   18.6510 C   0  0  0  0  0  0  0  0  0  0  0  0
    5.5935   -8.6419   17.4234 C   0  0  0  0  0  0  0  0  0  0  0  0
   13.0726   -4.6648   23.3394 O   0  0  0  0  0  0  0  0  0  0  0  0
    8.5955   -6.0705   17.3996 C   0  0  0  0  0  0  0  0  0  0  0  0
    4.6223   -8.3832   16.5030 C   0  0  0  0  0  0  0  0  0  0  0  0
   12.4690   -5.2624   19.9024 C   0  0  0  0  0  0  0  0  0  0  0  0
    3.2548   -9.9919   17.4189 C   0  0  0  0  0  0  0  0  0  0  0  0
   12.4767   -4.7393   22.1790 C   0  0  0  0  0  0  0  0  0  0  0  0
    7.8593   -5.3772   15.3569 N   0  0  0  0  0  0  0  0  0  0  0  0
    7.4412   -6.9038   16.9283 C   0  0  0  0  0  0  0  0  0  0  0  0
  1 21  4  0
  1 23  4  0
  2  5  1  0
  2 13  4  0
  2 16  4  0
  3  6  4  0
  3  7  4  0
  4 13  4  0
  4 19  4  0
  4 24  4  0
  6 23  4  0
  7 16  1  0
  7 21  4  0
  8 18  1  0
  9 20  4  0
  9 22  4  0
 10 17  1  0
 10 25  1  0
 11 16  4  0
 11 19  4  0
 12 15  4  0
 12 22  4  0
 14 24  4  0
 14 25  4  0
 15 17  4  0
 17 20  4  0
 18 23  1  0
 19 25  4  0
M  END
$$$$

 Created by Python create_sdf_string function

 25 28  0  0  0  0  0  0  0  0999 V2000
   13.1533   -5.2399   21.0682 C   0  0  0  0  0  0  0  0  0  0  0  0
   10.4729   -4.0295   17.6135 C   0  0  0  0  0  0  0  0  0  0  0  0
   10.4789   -4.3641   20.9564 C   0  0  0  0  0  0  0  0  0  0  0  0
    8.7421   -5.1412   16.3650 C   0  0  0  0  0  0  0  0  0  0  0  0
   11.4353   -2.9204   17.8044 C   0  0  0  0  0  0  0  0  0  0  0  0
   11.1529   -4.3028   22.1277 C   0  0  0  0  0  0  0  0  0  0  0  0
   11.1290   -4.8502   19.8052 C   0  0  0  0  0  0  0  0  0  0  0  0
   12.4329   -4.2159   24.4224 C   0  0  0  0  0  0  0  0  0  0  0  0
    3.4740   -9.0387   16.5022 C   0  0  0  0  0  0  0  0  0  0  0  0
    6.8384   -7.9290   17.5282 N   0  0  0  0  0  0  0  0  0  0  0  0
    9.4126   -5.9853   18.4899 C   0  0  0  0  0  0  0  0  0  0  0  0
    4.2064  -10.3242   18.3302 C   0  0  0  0  0  0  0  0  0  0  0  0
    9.6599   -4.1551   16.4796 N   0  0  0  0  0  0  0  0  0  0  0  0
    7.0644   -6.4612   15.7375 N   0  0  0  0  0  0  0  0  0  0  0  0
    5.3549   -9.6322   18.3190 C   0  0  0  0  0  0  0  0  0  0  0  0
   10.3704   -4.9638   18.6510 C   0  0  0  0  0  0  0  0  0  0  0  0
    5.5935   -8.6419   17.4234 C   0  0  0  0  0  0  0  0  0  0  0  0
   13.0726   -4.6648   23.3394 O   0  0  0  0  0  0  0  0  0  0  0  0
    8.5955   -6.0705   17.3996 C   0  0  0  0  0  0  0  0  0  0  0  0
    4.6223   -8.3832   16.5030 C   0  0  0  0  0  0  0  0  0  0  0  0
   12.4690   -5.2624   19.9024 C   0  0  0  0  0  0  0  0  0  0  0  0
    3.2548   -9.9919   17.4189 C   0  0  0  0  0  0  0  0  0  0  0  0
   12.4767   -4.7393   22.1790 C   0  0  0  0  0  0  0  0  0  0  0  0
    7.8593   -5.3772   15.3569 N   0  0  0  0  0  0  0  0  0  0  0  0
    7.4412   -6.9038   16.9283 C   0  0  0  0  0  0  0  0  0  0  0  0
  1 21  4  0
  1 23  4  0
  2  5  1  0
  2 13  4  0
  2 16  4  0
  3  6  4  0
  3  7  4  0
  4 13  4  0
  4 19  4  0
  4 24  4  0
  6 23  4  0
  7 16  1  0
  7 21  4  0
  8 18  1  0
  9 20  4  0
  9 22  4  0
 10 17  1  0
 10 25  1  0
 11 16  4  0
 11 19  4  0
 12 15  4  0
 12 22  4  0
 14 24  4  0
 14 25  4  0
 15 17  4  0
 17 20  4  0
 18 23  1  0
 19 25  4  0
M  END
$$$$

 Created by Python create_sdf_string function

 25 28  0  0  0  0  0  0  0  0999 V2000
   13.1533   -5.2399   21.0682 C   0  0  0  0  0  0  0  0  0  0  0  0
   10.4729   -4.0295   17.6135 C   0  0  0  0  0  0  0  0  0  0  0  0
   10.4789   -4.3641   20.9564 C   0  0  0  0  0  0  0  0  0  0  0  0
    8.7421   -5.1412   16.3650 C   0  0  0  0  0  0  0  0  0  0  0  0
   11.4353   -2.9204   17.8044 C   0  0  0  0  0  0  0  0  0  0  0  0
   11.1529   -4.3028   22.1277 C   0  0  0  0  0  0  0  0  0  0  0  0
   11.1290   -4.8502   19.8052 C   0  0  0  0  0  0  0  0  0  0  0  0
   12.4329   -4.2159   24.4224 C   0  0  0  0  0  0  0  0  0  0  0  0
    3.4740   -9.0387   16.5022 C   0  0  0  0  0  0  0  0  0  0  0  0
    6.8384   -7.9290   17.5282 N   0  0  0  0  0  0  0  0  0  0  0  0
    9.4126   -5.9853   18.4899 C   0  0  0  0  0  0  0  0  0  0  0  0
    4.2064  -10.3242   18.3302 C   0  0  0  0  0  0  0  0  0  0  0  0
    9.6599   -4.1551   16.4796 N   0  0  0  0  0  0  0  0  0  0  0  0
    7.0644   -6.4612   15.7375 N   0  0  0  0  0  0  0  0  0  0  0  0
    5.3549   -9.6322   18.3190 C   0  0  0  0  0  0  0  0  0  0  0  0
   10.3704   -4.9638   18.6510 C   0  0  0  0  0  0  0  0  0  0  0  0
    5.5935   -8.6419   17.4234 C   0  0  0  0  0  0  0  0  0  0  0  0
   13.0726   -4.6648   23.3394 O   0  0  0  0  0  0  0  0  0  0  0  0
    8.5955   -6.0705   17.3996 C   0  0  0  0  0  0  0  0  0  0  0  0
    4.6223   -8.3832   16.5030 C   0  0  0  0  0  0  0  0  0  0  0  0
   12.4690   -5.2624   19.9024 C   0  0  0  0  0  0  0  0  0  0  0  0
    3.2548   -9.9919   17.4189 C   0  0  0  0  0  0  0  0  0  0  0  0
   12.4767   -4.7393   22.1790 C   0  0  0  0  0  0  0  0  0  0  0  0
    7.8593   -5.3772   15.3569 N   0  0  0  0  0  0  0  0  0  0  0  0
    7.4412   -6.9038   16.9283 C   0  0  0  0  0  0  0  0  0  0  0  0
  1 21  4  0
  1 23  4  0
  2  5  1  0
  2 13  4  0
  2 16  4  0
  3  6  4  0
  3  7  4  0
  4 13  4  0
  4 19  4  0
  4 24  4  0
  6 23  4  0
  7 16  1  0
  7 21  4  0
  8 18  1  0
  9 20  4  0
  9 22  4  0
 10 17  1  0
 10 25  1  0
 11 16  4  0
 11 19  4  0
 12 15  4  0
 12 22  4  0
 14 24  4  0
 14 25  4  0
 15 17  4  0
 17 20  4  0
 18 23  1  0
 19 25  4  0
M  END
$$$$

 Created by Python create_sdf_string function

 25 28  0  0  0  0  0  0  0  0999 V2000
   13.1533   -5.2399   21.0682 C   0  0  0  0  0  0  0  0  0  0  0  0
   10.4729   -4.0295   17.6135 C   0  0  0  0  0  0  0  0  0  0  0  0
   10.4789   -4.3641   20.9564 C   0  0  0  0  0  0  0  0  0  0  0  0
    8.7421   -5.1412   16.3650 C   0  0  0  0  0  0  0  0  0  0  0  0
   11.4353   -2.9204   17.8044 C   0  0  0  0  0  0  0  0  0  0  0  0
   11.1529   -4.3028   22.1277 C   0  0  0  0  0  0  0  0  0  0  0  0
   11.1290   -4.8502   19.8052 C   0  0  0  0  0  0  0  0  0  0  0  0
   12.4329   -4.2159   24.4224 C   0  0  0  0  0  0  0  0  0  0  0  0
    3.4740   -9.0387   16.5022 C   0  0  0  0  0  0  0  0  0  0  0  0
    6.8384   -7.9290   17.5282 N   0  0  0  0  0  0  0  0  0  0  0  0
    9.4126   -5.9853   18.4899 C   0  0  0  0  0  0  0  0  0  0  0  0
    4.2064  -10.3242   18.3302 C   0  0  0  0  0  0  0  0  0  0  0  0
    9.6599   -4.1551   16.4796 N   0  0  0  0  0  0  0  0  0  0  0  0
    7.0644   -6.4612   15.7375 N   0  0  0  0  0  0  0  0  0  0  0  0
    5.3549   -9.6322   18.3190 C   0  0  0  0  0  0  0  0  0  0  0  0
   10.3704   -4.9638   18.6510 C   0  0  0  0  0  0  0  0  0  0  0  0
    5.5935   -8.6419   17.4234 C   0  0  0  0  0  0  0  0  0  0  0  0
   13.0726   -4.6648   23.3394 O   0  0  0  0  0  0  0  0  0  0  0  0
    8.5955   -6.0705   17.3996 C   0  0  0  0  0  0  0  0  0  0  0  0
    4.6223   -8.3832   16.5030 C   0  0  0  0  0  0  0  0  0  0  0  0
   12.4690   -5.2624   19.9024 C   0  0  0  0  0  0  0  0  0  0  0  0
    3.2548   -9.9919   17.4189 C   0  0  0  0  0  0  0  0  0  0  0  0
   12.4767   -4.7393   22.1790 C   0  0  0  0  0  0  0  0  0  0  0  0
    7.8593   -5.3772   15.3569 N   0  0  0  0  0  0  0  0  0  0  0  0
    7.4412   -6.9038   16.9283 C   0  0  0  0  0  0  0  0  0  0  0  0
  1 21  4  0
  1 23  4  0
  2  5  1  0
  2 13  4  0
  2 16  4  0
  3  6  4  0
  3  7  4  0
  4 13  4  0
  4 19  4  0
  4 24  4  0
  6 23  4  0
  7 16  1  0
  7 21  4  0
  8 18  1  0
  9 20  4  0
  9 22  4  0
 10 17  1  0
 10 25  1  0
 11 16  4  0
 11 19  4  0
 12 15  4  0
 12 22  4  0
 14 24  4  0
 14 25  4  0
 15 17  4  0
 17 20  4  0
 18 23  1  0
 19 25  4  0
M  END
$$$$

 Created by Python create_sdf_string function

 25 28  0  0  0  0  0  0  0  0999 V2000
   13.1533   -5.2399   21.0682 C   0  0  0  0  0  0  0  0  0  0  0  0
   10.4729   -4.0295   17.6135 C   0  0  0  0  0  0  0  0  0  0  0  0
   10.4789   -4.3641   20.9564 C   0  0  0  0  0  0  0  0  0  0  0  0
    8.7421   -5.1412   16.3650 C   0  0  0  0  0  0  0  0  0  0  0  0
   11.4353   -2.9204   17.8044 C   0  0  0  0  0  0  0  0  0  0  0  0
   11.1529   -4.3028   22.1277 C   0  0  0  0  0  0  0  0  0  0  0  0
   11.1290   -4.8502   19.8052 C   0  0  0  0  0  0  0  0  0  0  0  0
   12.4329   -4.2159   24.4224 C   0  0  0  0  0  0  0  0  0  0  0  0
    3.4740   -9.0387   16.5022 C   0  0  0  0  0  0  0  0  0  0  0  0
    6.8384   -7.9290   17.5282 N   0  0  0  0  0  0  0  0  0  0  0  0
    9.4126   -5.9853   18.4899 C   0  0  0  0  0  0  0  0  0  0  0  0
    4.2064  -10.3242   18.3302 C   0  0  0  0  0  0  0  0  0  0  0  0
    9.6599   -4.1551   16.4796 N   0  0  0  0  0  0  0  0  0  0  0  0
    7.0644   -6.4612   15.7375 N   0  0  0  0  0  0  0  0  0  0  0  0
    5.3549   -9.6322   18.3190 C   0  0  0  0  0  0  0  0  0  0  0  0
   10.3704   -4.9638   18.6510 C   0  0  0  0  0  0  0  0  0  0  0  0
    5.5935   -8.6419   17.4234 C   0  0  0  0  0  0  0  0  0  0  0  0
   13.0726   -4.6648   23.3394 O   0  0  0  0  0  0  0  0  0  0  0  0
    8.5955   -6.0705   17.3996 C   0  0  0  0  0  0  0  0  0  0  0  0
    4.6223   -8.3832   16.5030 C   0  0  0  0  0  0  0  0  0  0  0  0
   12.4690   -5.2624   19.9024 C   0  0  0  0  0  0  0  0  0  0  0  0
    3.2548   -9.9919   17.4189 C   0  0  0  0  0  0  0  0  0  0  0  0
   12.4767   -4.7393   22.1790 C   0  0  0  0  0  0  0  0  0  0  0  0
    7.8593   -5.3772   15.3569 N   0  0  0  0  0  0  0  0  0  0  0  0
    7.4412   -6.9038   16.9283 C   0  0  0  0  0  0  0  0  0  0  0  0
  1 21  4  0
  1 23  4  0
  2  5  1  0
  2 13  4  0
  2 16  4  0
  3  6  4  0
  3  7  4  0
  4 13  4  0
  4 19  4  0
  4 24  4  0
  6 23  4  0
  7 16  1  0
  7 21  4  0
  8 18  1  0
  9 20  4  0
  9 22  4  0
 10 17  1  0
 10 25  1  0
 11 16  4  0
 11 19  4  0
 12 15  4  0
 12 22  4  0
 14 24  4  0
 14 25  4  0
 15 17  4  0
 17 20  4  0
 18 23  1  0
 19 25  4  0
M  END
$$$$

 Created by Python create_sdf_string function

 25 28  0  0  0  0  0  0  0  0999 V2000
   13.1533   -5.2399   21.0682 C   0  0  0  0  0  0  0  0  0  0  0  0
   10.4729   -4.0295   17.6135 C   0  0  0  0  0  0  0  0  0  0  0  0
   10.4789   -4.3641   20.9564 C   0  0  0  0  0  0  0  0  0  0  0  0
    8.7421   -5.1412   16.3650 C   0  0  0  0  0  0  0  0  0  0  0  0
   11.4353   -2.9204   17.8044 C   0  0  0  0  0  0  0  0  0  0  0  0
   11.1529   -4.3028   22.1277 C   0  0  0  0  0  0  0  0  0  0  0  0
   11.1290   -4.8502   19.8052 C   0  0  0  0  0  0  0  0  0  0  0  0
   12.4329   -4.2159   24.4224 C   0  0  0  0  0  0  0  0  0  0  0  0
    3.4740   -9.0387   16.5022 C   0  0  0  0  0  0  0  0  0  0  0  0
    6.8384   -7.9290   17.5282 N   0  0  0  0  0  0  0  0  0  0  0  0
    9.4126   -5.9853   18.4899 C   0  0  0  0  0  0  0  0  0  0  0  0
    4.2064  -10.3242   18.3302 C   0  0  0  0  0  0  0  0  0  0  0  0
    9.6599   -4.1551   16.4796 N   0  0  0  0  0  0  0  0  0  0  0  0
    7.0644   -6.4612   15.7375 N   0  0  0  0  0  0  0  0  0  0  0  0
    5.3549   -9.6322   18.3190 C   0  0  0  0  0  0  0  0  0  0  0  0
   10.3704   -4.9638   18.6510 C   0  0  0  0  0  0  0  0  0  0  0  0
    5.5935   -8.6419   17.4234 C   0  0  0  0  0  0  0  0  0  0  0  0
   13.0726   -4.6648   23.3394 O   0  0  0  0  0  0  0  0  0  0  0  0
    8.5955   -6.0705   17.3996 C   0  0  0  0  0  0  0  0  0  0  0  0
    4.6223   -8.3832   16.5030 C   0  0  0  0  0  0  0  0  0  0  0  0
   12.4690   -5.2624   19.9024 C   0  0  0  0  0  0  0  0  0  0  0  0
    3.2548   -9.9919   17.4189 C   0  0  0  0  0  0  0  0  0  0  0  0
   12.4767   -4.7393   22.1790 C   0  0  0  0  0  0  0  0  0  0  0  0
    7.8593   -5.3772   15.3569 N   0  0  0  0  0  0  0  0  0  0  0  0
    7.4412   -6.9038   16.9283 C   0  0  0  0  0  0  0  0  0  0  0  0
  1 21  4  0
  1 23  4  0
  2  5  1  0
  2 13  4  0
  2 16  4  0
  3  6  4  0
  3  7  4  0
  4 13  4  0
  4 19  4  0
  4 24  4  0
  6 23  4  0
  7 16  1  0
  7 21  4  0
  8 18  1  0
  9 20  4  0
  9 22  4  0
 10 17  1  0
 10 25  1  0
 11 16  4  0
 11 19  4  0
 12 15  4  0
 12 22  4  0
 14 24  4  0
 14 25  4  0
 15 17  4  0
 17 20  4  0
 18 23  1  0
 19 25  4  0
M  END
$$$$

 Created by Python create_sdf_string function

 25 28  0  0  0  0  0  0  0  0999 V2000
   13.1533   -5.2399   21.0682 C   0  0  0  0  0  0  0  0  0  0  0  0
   10.4729   -4.0295   17.6135 C   0  0  0  0  0  0  0  0  0  0  0  0
   10.4789   -4.3641   20.9564 C   0  0  0  0  0  0  0  0  0  0  0  0
    8.7421   -5.1412   16.3650 C   0  0  0  0  0  0  0  0  0  0  0  0
   11.4353   -2.9204   17.8044 C   0  0  0  0  0  0  0  0  0  0  0  0
   11.1529   -4.3028   22.1277 C   0  0  0  0  0  0  0  0  0  0  0  0
   11.1290   -4.8502   19.8052 C   0  0  0  0  0  0  0  0  0  0  0  0
   12.4329   -4.2159   24.4224 C   0  0  0  0  0  0  0  0  0  0  0  0
    3.4740   -9.0387   16.5022 C   0  0  0  0  0  0  0  0  0  0  0  0
    6.8384   -7.9290   17.5282 N   0  0  0  0  0  0  0  0  0  0  0  0
    9.4126   -5.9853   18.4899 C   0  0  0  0  0  0  0  0  0  0  0  0
    4.2064  -10.3242   18.3302 C   0  0  0  0  0  0  0  0  0  0  0  0
    9.6599   -4.1551   16.4796 N   0  0  0  0  0  0  0  0  0  0  0  0
    7.0644   -6.4612   15.7375 N   0  0  0  0  0  0  0  0  0  0  0  0
    5.3549   -9.6322   18.3190 C   0  0  0  0  0  0  0  0  0  0  0  0
   10.3704   -4.9638   18.6510 C   0  0  0  0  0  0  0  0  0  0  0  0
    5.5935   -8.6419   17.4234 C   0  0  0  0  0  0  0  0  0  0  0  0
   13.0726   -4.6648   23.3394 O   0  0  0  0  0  0  0  0  0  0  0  0
    8.5955   -6.0705   17.3996 C   0  0  0  0  0  0  0  0  0  0  0  0
    4.6223   -8.3832   16.5030 C   0  0  0  0  0  0  0  0  0  0  0  0
   12.4690   -5.2624   19.9024 C   0  0  0  0  0  0  0  0  0  0  0  0
    3.2548   -9.9919   17.4189 C   0  0  0  0  0  0  0  0  0  0  0  0
   12.4767   -4.7393   22.1790 C   0  0  0  0  0  0  0  0  0  0  0  0
    7.8593   -5.3772   15.3569 N   0  0  0  0  0  0  0  0  0  0  0  0
    7.4412   -6.9038   16.9283 C   0  0  0  0  0  0  0  0  0  0  0  0
  1 21  4  0
  1 23  4  0
  2  5  1  0
  2 13  4  0
  2 16  4  0
  3  6  4  0
  3  7  4  0
  4 13  4  0
  4 19  4  0
  4 24  4  0
  6 23  4  0
  7 16  1  0
  7 21  4  0
  8 18  1  0
  9 20  4  0
  9 22  4  0
 10 17  1  0
 10 25  1  0
 11 16  4  0
 11 19  4  0
 12 15  4  0
 12 22  4  0
 14 24  4  0
 14 25  4  0
 15 17  4  0
 17 20  4  0
 18 23  1  0
 19 25  4  0
M  END
$$$$

 Created by Python create_sdf_string function

 25 28  0  0  0  0  0  0  0  0999 V2000
   13.1533   -5.2399   21.0682 C   0  0  0  0  0  0  0  0  0  0  0  0
   10.4729   -4.0295   17.6135 C   0  0  0  0  0  0  0  0  0  0  0  0
   10.4789   -4.3641   20.9564 C   0  0  0  0  0  0  0  0  0  0  0  0
    8.7421   -5.1412   16.3650 C   0  0  0  0  0  0  0  0  0  0  0  0
   11.4353   -2.9204   17.8044 C   0  0  0  0  0  0  0  0  0  0  0  0
   11.1529   -4.3028   22.1277 C   0  0  0  0  0  0  0  0  0  0  0  0
   11.1290   -4.8502   19.8052 C   0  0  0  0  0  0  0  0  0  0  0  0
   12.4329   -4.2159   24.4224 C   0  0  0  0  0  0  0  0  0  0  0  0
    3.4740   -9.0387   16.5022 C   0  0  0  0  0  0  0  0  0  0  0  0
    6.8384   -7.9290   17.5282 N   0  0  0  0  0  0  0  0  0  0  0  0
    9.4126   -5.9853   18.4899 C   0  0  0  0  0  0  0  0  0  0  0  0
    4.2064  -10.3242   18.3302 C   0  0  0  0  0  0  0  0  0  0  0  0
    9.6599   -4.1551   16.4796 N   0  0  0  0  0  0  0  0  0  0  0  0
    7.0644   -6.4612   15.7375 N   0  0  0  0  0  0  0  0  0  0  0  0
    5.3549   -9.6322   18.3190 C   0  0  0  0  0  0  0  0  0  0  0  0
   10.3704   -4.9638   18.6510 C   0  0  0  0  0  0  0  0  0  0  0  0
    5.5935   -8.6419   17.4234 C   0  0  0  0  0  0  0  0  0  0  0  0
   13.0726   -4.6648   23.3394 O   0  0  0  0  0  0  0  0  0  0  0  0
    8.5955   -6.0705   17.3996 C   0  0  0  0  0  0  0  0  0  0  0  0
    4.6223   -8.3832   16.5030 C   0  0  0  0  0  0  0  0  0  0  0  0
   12.4690   -5.2624   19.9024 C   0  0  0  0  0  0  0  0  0  0  0  0
    3.2548   -9.9919   17.4189 C   0  0  0  0  0  0  0  0  0  0  0  0
   12.4767   -4.7393   22.1790 C   0  0  0  0  0  0  0  0  0  0  0  0
    7.8593   -5.3772   15.3569 N   0  0  0  0  0  0  0  0  0  0  0  0
    7.4412   -6.9038   16.9283 C   0  0  0  0  0  0  0  0  0  0  0  0
  1 21  4  0
  1 23  4  0
  2  5  1  0
  2 13  4  0
  2 16  4  0
  3  6  4  0
  3  7  4  0
  4 13  4  0
  4 19  4  0
  4 24  4  0
  6 23  4  0
  7 16  1  0
  7 21  4  0
  8 18  1  0
  9 20  4  0
  9 22  4  0
 10 17  1  0
 10 25  1  0
 11 16  4  0
 11 19  4  0
 12 15  4  0
 12 22  4  0
 14 24  4  0
 14 25  4  0
 15 17  4  0
 17 20  4  0
 18 23  1  0
 19 25  4  0
M  END
$$$$

 Created by Python create_sdf_string function

 25 28  0  0  0  0  0  0  0  0999 V2000
   13.1533   -5.2399   21.0682 C   0  0  0  0  0  0  0  0  0  0  0  0
   10.4729   -4.0295   17.6135 C   0  0  0  0  0  0  0  0  0  0  0  0
   10.4789   -4.3641   20.9564 C   0  0  0  0  0  0  0  0  0  0  0  0
    8.7421   -5.1412   16.3650 C   0  0  0  0  0  0  0  0  0  0  0  0
   11.4353   -2.9204   17.8044 C   0  0  0  0  0  0  0  0  0  0  0  0
   11.1529   -4.3028   22.1277 C   0  0  0  0  0  0  0  0  0  0  0  0
   11.1290   -4.8502   19.8052 C   0  0  0  0  0  0  0  0  0  0  0  0
   12.4329   -4.2159   24.4224 C   0  0  0  0  0  0  0  0  0  0  0  0
    3.4740   -9.0387   16.5022 C   0  0  0  0  0  0  0  0  0  0  0  0
    6.8384   -7.9290   17.5282 N   0  0  0  0  0  0  0  0  0  0  0  0
    9.4126   -5.9853   18.4899 C   0  0  0  0  0  0  0  0  0  0  0  0
    4.2064  -10.3242   18.3302 C   0  0  0  0  0  0  0  0  0  0  0  0
    9.6599   -4.1551   16.4796 N   0  0  0  0  0  0  0  0  0  0  0  0
    7.0644   -6.4612   15.7375 N   0  0  0  0  0  0  0  0  0  0  0  0
    5.3549   -9.6322   18.3190 C   0  0  0  0  0  0  0  0  0  0  0  0
   10.3704   -4.9638   18.6510 C   0  0  0  0  0  0  0  0  0  0  0  0
    5.5935   -8.6419   17.4234 C   0  0  0  0  0  0  0  0  0  0  0  0
   13.0726   -4.6648   23.3394 O   0  0  0  0  0  0  0  0  0  0  0  0
    8.5955   -6.0705   17.3996 C   0  0  0  0  0  0  0  0  0  0  0  0
    4.6223   -8.3832   16.5030 C   0  0  0  0  0  0  0  0  0  0  0  0
   12.4690   -5.2624   19.9024 C   0  0  0  0  0  0  0  0  0  0  0  0
    3.2548   -9.9919   17.4189 C   0  0  0  0  0  0  0  0  0  0  0  0
   12.4767   -4.7393   22.1790 C   0  0  0  0  0  0  0  0  0  0  0  0
    7.8593   -5.3772   15.3569 N   0  0  0  0  0  0  0  0  0  0  0  0
    7.4412   -6.9038   16.9283 C   0  0  0  0  0  0  0  0  0  0  0  0
  1 21  4  0
  1 23  4  0
  2  5  1  0
  2 13  4  0
  2 16  4  0
  3  6  4  0
  3  7  4  0
  4 13  4  0
  4 19  4  0
  4 24  4  0
  6 23  4  0
  7 16  1  0
  7 21  4  0
  8 18  1  0
  9 20  4  0
  9 22  4  0
 10 17  1  0
 10 25  1  0
 11 16  4  0
 11 19  4  0
 12 15  4  0
 12 22  4  0
 14 24  4  0
 14 25  4  0
 15 17  4  0
 17 20  4  0
 18 23  1  0
 19 25  4  0
M  END
$$$$

 Created by Python create_sdf_string function

 25 28  0  0  0  0  0  0  0  0999 V2000
   13.1533   -5.2399   21.0682 C   0  0  0  0  0  0  0  0  0  0  0  0
   10.4729   -4.0295   17.6135 C   0  0  0  0  0  0  0  0  0  0  0  0
   10.4789   -4.3641   20.9564 C   0  0  0  0  0  0  0  0  0  0  0  0
    8.7421   -5.1412   16.3650 C   0  0  0  0  0  0  0  0  0  0  0  0
   11.4353   -2.9204   17.8044 C   0  0  0  0  0  0  0  0  0  0  0  0
   11.1529   -4.3028   22.1277 C   0  0  0  0  0  0  0  0  0  0  0  0
   11.1290   -4.8502   19.8052 C   0  0  0  0  0  0  0  0  0  0  0  0
   12.4329   -4.2159   24.4224 C   0  0  0  0  0  0  0  0  0  0  0  0
    3.4740   -9.0387   16.5022 C   0  0  0  0  0  0  0  0  0  0  0  0
    6.8384   -7.9290   17.5282 N   0  0  0  0  0  0  0  0  0  0  0  0
    9.4126   -5.9853   18.4899 C   0  0  0  0  0  0  0  0  0  0  0  0
    4.2064  -10.3242   18.3302 C   0  0  0  0  0  0  0  0  0  0  0  0
    9.6599   -4.1551   16.4796 N   0  0  0  0  0  0  0  0  0  0  0  0
    7.0644   -6.4612   15.7375 N   0  0  0  0  0  0  0  0  0  0  0  0
    5.3549   -9.6322   18.3190 C   0  0  0  0  0  0  0  0  0  0  0  0
   10.3704   -4.9638   18.6510 C   0  0  0  0  0  0  0  0  0  0  0  0
    5.5935   -8.6419   17.4234 C   0  0  0  0  0  0  0  0  0  0  0  0
   13.0726   -4.6648   23.3394 O   0  0  0  0  0  0  0  0  0  0  0  0
    8.5955   -6.0705   17.3996 C   0  0  0  0  0  0  0  0  0  0  0  0
    4.6223   -8.3832   16.5030 C   0  0  0  0  0  0  0  0  0  0  0  0
   12.4690   -5.2624   19.9024 C   0  0  0  0  0  0  0  0  0  0  0  0
    3.2548   -9.9919   17.4189 C   0  0  0  0  0  0  0  0  0  0  0  0
   12.4767   -4.7393   22.1790 C   0  0  0  0  0  0  0  0  0  0  0  0
    7.8593   -5.3772   15.3569 N   0  0  0  0  0  0  0  0  0  0  0  0
    7.4412   -6.9038   16.9283 C   0  0  0  0  0  0  0  0  0  0  0  0
  1 21  4  0
  1 23  4  0
  2  5  1  0
  2 13  4  0
  2 16  4  0
  3  6  4  0
  3  7  4  0
  4 13  4  0
  4 19  4  0
  4 24  4  0
  6 23  4  0
  7 16  1  0
  7 21  4  0
  8 18  1  0
  9 20  4  0
  9 22  4  0
 10 17  1  0
 10 25  1  0
 11 16  4  0
 11 19  4  0
 12 15  4  0
 12 22  4  0
 14 24  4  0
 14 25  4  0
 15 17  4  0
 17 20  4  0
 18 23  1  0
 19 25  4  0
M  END
$$$$

 Created by Python create_sdf_string function

 25 28  0  0  0  0  0  0  0  0999 V2000
   13.1533   -5.2399   21.0682 C   0  0  0  0  0  0  0  0  0  0  0  0
   10.4729   -4.0295   17.6135 C   0  0  0  0  0  0  0  0  0  0  0  0
   10.4789   -4.3641   20.9564 C   0  0  0  0  0  0  0  0  0  0  0  0
    8.7421   -5.1412   16.3650 C   0  0  0  0  0  0  0  0  0  0  0  0
   11.4353   -2.9204   17.8044 C   0  0  0  0  0  0  0  0  0  0  0  0
   11.1529   -4.3028   22.1277 C   0  0  0  0  0  0  0  0  0  0  0  0
   11.1290   -4.8502   19.8052 C   0  0  0  0  0  0  0  0  0  0  0  0
   12.4329   -4.2159   24.4224 C   0  0  0  0  0  0  0  0  0  0  0  0
    3.4740   -9.0387   16.5022 C   0  0  0  0  0  0  0  0  0  0  0  0
    6.8384   -7.9290   17.5282 N   0  0  0  0  0  0  0  0  0  0  0  0
    9.4126   -5.9853   18.4899 C   0  0  0  0  0  0  0  0  0  0  0  0
    4.2064  -10.3242   18.3302 C   0  0  0  0  0  0  0  0  0  0  0  0
    9.6599   -4.1551   16.4796 N   0  0  0  0  0  0  0  0  0  0  0  0
    7.0644   -6.4612   15.7375 N   0  0  0  0  0  0  0  0  0  0  0  0
    5.3549   -9.6322   18.3190 C   0  0  0  0  0  0  0  0  0  0  0  0
   10.3704   -4.9638   18.6510 C   0  0  0  0  0  0  0  0  0  0  0  0
    5.5935   -8.6419   17.4234 C   0  0  0  0  0  0  0  0  0  0  0  0
   13.0726   -4.6648   23.3394 O   0  0  0  0  0  0  0  0  0  0  0  0
    8.5955   -6.0705   17.3996 C   0  0  0  0  0  0  0  0  0  0  0  0
    4.6223   -8.3832   16.5030 C   0  0  0  0  0  0  0  0  0  0  0  0
   12.4690   -5.2624   19.9024 C   0  0  0  0  0  0  0  0  0  0  0  0
    3.2548   -9.9919   17.4189 C   0  0  0  0  0  0  0  0  0  0  0  0
   12.4767   -4.7393   22.1790 C   0  0  0  0  0  0  0  0  0  0  0  0
    7.8593   -5.3772   15.3569 N   0  0  0  0  0  0  0  0  0  0  0  0
    7.4412   -6.9038   16.9283 C   0  0  0  0  0  0  0  0  0  0  0  0
  1 21  4  0
  1 23  4  0
  2  5  1  0
  2 13  4  0
  2 16  4  0
  3  6  4  0
  3  7  4  0
  4 13  4  0
  4 19  4  0
  4 24  4  0
  6 23  4  0
  7 16  1  0
  7 21  4  0
  8 18  1  0
  9 20  4  0
  9 22  4  0
 10 17  1  0
 10 25  1  0
 11 16  4  0
 11 19  4  0
 12 15  4  0
 12 22  4  0
 14 24  4  0
 14 25  4  0
 15 17  4  0
 17 20  4  0
 18 23  1  0
 19 25  4  0
M  END
$$$$

 Created by Python create_sdf_string function

 25 28  0  0  0  0  0  0  0  0999 V2000
   13.1533   -5.2399   21.0682 C   0  0  0  0  0  0  0  0  0  0  0  0
   10.4729   -4.0295   17.6135 C   0  0  0  0  0  0  0  0  0  0  0  0
   10.4789   -4.3641   20.9564 C   0  0  0  0  0  0  0  0  0  0  0  0
    8.7421   -5.1412   16.3650 C   0  0  0  0  0  0  0  0  0  0  0  0
   11.4353   -2.9204   17.8044 C   0  0  0  0  0  0  0  0  0  0  0  0
   11.1529   -4.3028   22.1277 C   0  0  0  0  0  0  0  0  0  0  0  0
   11.1290   -4.8502   19.8052 C   0  0  0  0  0  0  0  0  0  0  0  0
   12.4329   -4.2159   24.4224 C   0  0  0  0  0  0  0  0  0  0  0  0
    3.4740   -9.0387   16.5022 C   0  0  0  0  0  0  0  0  0  0  0  0
    6.8384   -7.9290   17.5282 N   0  0  0  0  0  0  0  0  0  0  0  0
    9.4126   -5.9853   18.4899 C   0  0  0  0  0  0  0  0  0  0  0  0
    4.2064  -10.3242   18.3302 C   0  0  0  0  0  0  0  0  0  0  0  0
    9.6599   -4.1551   16.4796 N   0  0  0  0  0  0  0  0  0  0  0  0
    7.0644   -6.4612   15.7375 N   0  0  0  0  0  0  0  0  0  0  0  0
    5.3549   -9.6322   18.3190 C   0  0  0  0  0  0  0  0  0  0  0  0
   10.3704   -4.9638   18.6510 C   0  0  0  0  0  0  0  0  0  0  0  0
    5.5935   -8.6419   17.4234 C   0  0  0  0  0  0  0  0  0  0  0  0
   13.0726   -4.6648   23.3394 O   0  0  0  0  0  0  0  0  0  0  0  0
    8.5955   -6.0705   17.3996 C   0  0  0  0  0  0  0  0  0  0  0  0
    4.6223   -8.3832   16.5030 C   0  0  0  0  0  0  0  0  0  0  0  0
   12.4690   -5.2624   19.9024 C   0  0  0  0  0  0  0  0  0  0  0  0
    3.2548   -9.9919   17.4189 C   0  0  0  0  0  0  0  0  0  0  0  0
   12.4767   -4.7393   22.1790 C   0  0  0  0  0  0  0  0  0  0  0  0
    7.8593   -5.3772   15.3569 N   0  0  0  0  0  0  0  0  0  0  0  0
    7.4412   -6.9038   16.9283 C   0  0  0  0  0  0  0  0  0  0  0  0
  1 21  4  0
  1 23  4  0
  2  5  1  0
  2 13  4  0
  2 16  4  0
  3  6  4  0
  3  7  4  0
  4 13  4  0
  4 19  4  0
  4 24  4  0
  6 23  4  0
  7 16  1  0
  7 21  4  0
  8 18  1  0
  9 20  4  0
  9 22  4  0
 10 17  1  0
 10 25  1  0
 11 16  4  0
 11 19  4  0
 12 15  4  0
 12 22  4  0
 14 24  4  0
 14 25  4  0
 15 17  4  0
 17 20  4  0
 18 23  1  0
 19 25  4  0
M  END
$$$$

 Created by Python create_sdf_string function

 25 28  0  0  0  0  0  0  0  0999 V2000
   13.1533   -5.2399   21.0682 C   0  0  0  0  0  0  0  0  0  0  0  0
   10.4729   -4.0295   17.6135 C   0  0  0  0  0  0  0  0  0  0  0  0
   10.4789   -4.3641   20.9564 C   0  0  0  0  0  0  0  0  0  0  0  0
    8.7421   -5.1412   16.3650 C   0  0  0  0  0  0  0  0  0  0  0  0
   11.4353   -2.9204   17.8044 C   0  0  0  0  0  0  0  0  0  0  0  0
   11.1529   -4.3028   22.1277 C   0  0  0  0  0  0  0  0  0  0  0  0
   11.1290   -4.8502   19.8052 C   0  0  0  0  0  0  0  0  0  0  0  0
   12.4329   -4.2159   24.4224 C   0  0  0  0  0  0  0  0  0  0  0  0
    3.4740   -9.0387   16.5022 C   0  0  0  0  0  0  0  0  0  0  0  0
    6.8384   -7.9290   17.5282 N   0  0  0  0  0  0  0  0  0  0  0  0
    9.4126   -5.9853   18.4899 C   0  0  0  0  0  0  0  0  0  0  0  0
    4.2064  -10.3242   18.3302 C   0  0  0  0  0  0  0  0  0  0  0  0
    9.6599   -4.1551   16.4796 N   0  0  0  0  0  0  0  0  0  0  0  0
    7.0644   -6.4612   15.7375 N   0  0  0  0  0  0  0  0  0  0  0  0
    5.3549   -9.6322   18.3190 C   0  0  0  0  0  0  0  0  0  0  0  0
   10.3704   -4.9638   18.6510 C   0  0  0  0  0  0  0  0  0  0  0  0
    5.5935   -8.6419   17.4234 C   0  0  0  0  0  0  0  0  0  0  0  0
   13.0726   -4.6648   23.3394 O   0  0  0  0  0  0  0  0  0  0  0  0
    8.5955   -6.0705   17.3996 C   0  0  0  0  0  0  0  0  0  0  0  0
    4.6223   -8.3832   16.5030 C   0  0  0  0  0  0  0  0  0  0  0  0
   12.4690   -5.2624   19.9024 C   0  0  0  0  0  0  0  0  0  0  0  0
    3.2548   -9.9919   17.4189 C   0  0  0  0  0  0  0  0  0  0  0  0
   12.4767   -4.7393   22.1790 C   0  0  0  0  0  0  0  0  0  0  0  0
    7.8593   -5.3772   15.3569 N   0  0  0  0  0  0  0  0  0  0  0  0
    7.4412   -6.9038   16.9283 C   0  0  0  0  0  0  0  0  0  0  0  0
  1 21  4  0
  1 23  4  0
  2  5  1  0
  2 13  4  0
  2 16  4  0
  3  6  4  0
  3  7  4  0
  4 13  4  0
  4 19  4  0
  4 24  4  0
  6 23  4  0
  7 16  1  0
  7 21  4  0
  8 18  1  0
  9 20  4  0
  9 22  4  0
 10 17  1  0
 10 25  1  0
 11 16  4  0
 11 19  4  0
 12 15  4  0
 12 22  4  0
 14 24  4  0
 14 25  4  0
 15 17  4  0
 17 20  4  0
 18 23  1  0
 19 25  4  0
M  END
$$$$

 Created by Python create_sdf_string function

 25 28  0  0  0  0  0  0  0  0999 V2000
   13.1533   -5.2399   21.0682 C   0  0  0  0  0  0  0  0  0  0  0  0
   10.4729   -4.0295   17.6135 C   0  0  0  0  0  0  0  0  0  0  0  0
   10.4789   -4.3641   20.9564 C   0  0  0  0  0  0  0  0  0  0  0  0
    8.7421   -5.1412   16.3650 C   0  0  0  0  0  0  0  0  0  0  0  0
   11.4353   -2.9204   17.8044 C   0  0  0  0  0  0  0  0  0  0  0  0
   11.1529   -4.3028   22.1277 C   0  0  0  0  0  0  0  0  0  0  0  0
   11.1290   -4.8502   19.8052 C   0  0  0  0  0  0  0  0  0  0  0  0
   12.4329   -4.2159   24.4224 C   0  0  0  0  0  0  0  0  0  0  0  0
    3.4740   -9.0387   16.5022 C   0  0  0  0  0  0  0  0  0  0  0  0
    6.8384   -7.9290   17.5282 N   0  0  0  0  0  0  0  0  0  0  0  0
    9.4126   -5.9853   18.4899 C   0  0  0  0  0  0  0  0  0  0  0  0
    4.2064  -10.3242   18.3302 C   0  0  0  0  0  0  0  0  0  0  0  0
    9.6599   -4.1551   16.4796 N   0  0  0  0  0  0  0  0  0  0  0  0
    7.0644   -6.4612   15.7375 N   0  0  0  0  0  0  0  0  0  0  0  0
    5.3549   -9.6322   18.3190 C   0  0  0  0  0  0  0  0  0  0  0  0
   10.3704   -4.9638   18.6510 C   0  0  0  0  0  0  0  0  0  0  0  0
    5.5935   -8.6419   17.4234 C   0  0  0  0  0  0  0  0  0  0  0  0
   13.0726   -4.6648   23.3394 O   0  0  0  0  0  0  0  0  0  0  0  0
    8.5955   -6.0705   17.3996 C   0  0  0  0  0  0  0  0  0  0  0  0
    4.6223   -8.3832   16.5030 C   0  0  0  0  0  0  0  0  0  0  0  0
   12.4690   -5.2624   19.9024 C   0  0  0  0  0  0  0  0  0  0  0  0
    3.2548   -9.9919   17.4189 C   0  0  0  0  0  0  0  0  0  0  0  0
   12.4767   -4.7393   22.1790 C   0  0  0  0  0  0  0  0  0  0  0  0
    7.8593   -5.3772   15.3569 N   0  0  0  0  0  0  0  0  0  0  0  0
    7.4412   -6.9038   16.9283 C   0  0  0  0  0  0  0  0  0  0  0  0
  1 21  4  0
  1 23  4  0
  2  5  1  0
  2 13  4  0
  2 16  4  0
  3  6  4  0
  3  7  4  0
  4 13  4  0
  4 19  4  0
  4 24  4  0
  6 23  4  0
  7 16  1  0
  7 21  4  0
  8 18  1  0
  9 20  4  0
  9 22  4  0
 10 17  1  0
 10 25  1  0
 11 16  4  0
 11 19  4  0
 12 15  4  0
 12 22  4  0
 14 24  4  0
 14 25  4  0
 15 17  4  0
 17 20  4  0
 18 23  1  0
 19 25  4  0
M  END
$$$$

 Created by Python create_sdf_string function

 25 28  0  0  0  0  0  0  0  0999 V2000
   13.1533   -5.2399   21.0682 C   0  0  0  0  0  0  0  0  0  0  0  0
   10.4729   -4.0295   17.6135 C   0  0  0  0  0  0  0  0  0  0  0  0
   10.4789   -4.3641   20.9564 C   0  0  0  0  0  0  0  0  0  0  0  0
    8.7421   -5.1412   16.3650 C   0  0  0  0  0  0  0  0  0  0  0  0
   11.4353   -2.9204   17.8044 C   0  0  0  0  0  0  0  0  0  0  0  0
   11.1529   -4.3028   22.1277 C   0  0  0  0  0  0  0  0  0  0  0  0
   11.1290   -4.8502   19.8052 C   0  0  0  0  0  0  0  0  0  0  0  0
   12.4329   -4.2159   24.4224 C   0  0  0  0  0  0  0  0  0  0  0  0
    3.4740   -9.0387   16.5022 C   0  0  0  0  0  0  0  0  0  0  0  0
    6.8384   -7.9290   17.5282 N   0  0  0  0  0  0  0  0  0  0  0  0
    9.4126   -5.9853   18.4899 C   0  0  0  0  0  0  0  0  0  0  0  0
    4.2064  -10.3242   18.3302 C   0  0  0  0  0  0  0  0  0  0  0  0
    9.6599   -4.1551   16.4796 N   0  0  0  0  0  0  0  0  0  0  0  0
    7.0644   -6.4612   15.7375 N   0  0  0  0  0  0  0  0  0  0  0  0
    5.3549   -9.6322   18.3190 C   0  0  0  0  0  0  0  0  0  0  0  0
   10.3704   -4.9638   18.6510 C   0  0  0  0  0  0  0  0  0  0  0  0
    5.5935   -8.6419   17.4234 C   0  0  0  0  0  0  0  0  0  0  0  0
   13.0726   -4.6648   23.3394 O   0  0  0  0  0  0  0  0  0  0  0  0
    8.5955   -6.0705   17.3996 C   0  0  0  0  0  0  0  0  0  0  0  0
    4.6223   -8.3832   16.5030 C   0  0  0  0  0  0  0  0  0  0  0  0
   12.4690   -5.2624   19.9024 C   0  0  0  0  0  0  0  0  0  0  0  0
    3.2548   -9.9919   17.4189 C   0  0  0  0  0  0  0  0  0  0  0  0
   12.4767   -4.7393   22.1790 C   0  0  0  0  0  0  0  0  0  0  0  0
    7.8593   -5.3772   15.3569 N   0  0  0  0  0  0  0  0  0  0  0  0
    7.4412   -6.9038   16.9283 C   0  0  0  0  0  0  0  0  0  0  0  0
  1 21  4  0
  1 23  4  0
  2  5  1  0
  2 13  4  0
  2 16  4  0
  3  6  4  0
  3  7  4  0
  4 13  4  0
  4 19  4  0
  4 24  4  0
  6 23  4  0
  7 16  1  0
  7 21  4  0
  8 18  1  0
  9 20  4  0
  9 22  4  0
 10 17  1  0
 10 25  1  0
 11 16  4  0
 11 19  4  0
 12 15  4  0
 12 22  4  0
 14 24  4  0
 14 25  4  0
 15 17  4  0
 17 20  4  0
 18 23  1  0
 19 25  4  0
M  END
$$$$

 Created by Python create_sdf_string function

 25 28  0  0  0  0  0  0  0  0999 V2000
   13.1533   -5.2399   21.0682 C   0  0  0  0  0  0  0  0  0  0  0  0
   10.4729   -4.0295   17.6135 C   0  0  0  0  0  0  0  0  0  0  0  0
   10.4789   -4.3641   20.9564 C   0  0  0  0  0  0  0  0  0  0  0  0
    8.7421   -5.1412   16.3650 C   0  0  0  0  0  0  0  0  0  0  0  0
   11.4353   -2.9204   17.8044 C   0  0  0  0  0  0  0  0  0  0  0  0
   11.1529   -4.3028   22.1277 C   0  0  0  0  0  0  0  0  0  0  0  0
   11.1290   -4.8502   19.8052 C   0  0  0  0  0  0  0  0  0  0  0  0
   12.4329   -4.2159   24.4224 C   0  0  0  0  0  0  0  0  0  0  0  0
    3.4740   -9.0387   16.5022 C   0  0  0  0  0  0  0  0  0  0  0  0
    6.8384   -7.9290   17.5282 N   0  0  0  0  0  0  0  0  0  0  0  0
    9.4126   -5.9853   18.4899 C   0  0  0  0  0  0  0  0  0  0  0  0
    4.2064  -10.3242   18.3302 C   0  0  0  0  0  0  0  0  0  0  0  0
    9.6599   -4.1551   16.4796 N   0  0  0  0  0  0  0  0  0  0  0  0
    7.0644   -6.4612   15.7375 N   0  0  0  0  0  0  0  0  0  0  0  0
    5.3549   -9.6322   18.3190 C   0  0  0  0  0  0  0  0  0  0  0  0
   10.3704   -4.9638   18.6510 C   0  0  0  0  0  0  0  0  0  0  0  0
    5.5935   -8.6419   17.4234 C   0  0  0  0  0  0  0  0  0  0  0  0
   13.0726   -4.6648   23.3394 O   0  0  0  0  0  0  0  0  0  0  0  0
    8.5955   -6.0705   17.3996 C   0  0  0  0  0  0  0  0  0  0  0  0
    4.6223   -8.3832   16.5030 C   0  0  0  0  0  0  0  0  0  0  0  0
   12.4690   -5.2624   19.9024 C   0  0  0  0  0  0  0  0  0  0  0  0
    3.2548   -9.9919   17.4189 C   0  0  0  0  0  0  0  0  0  0  0  0
   12.4767   -4.7393   22.1790 C   0  0  0  0  0  0  0  0  0  0  0  0
    7.8593   -5.3772   15.3569 N   0  0  0  0  0  0  0  0  0  0  0  0
    7.4412   -6.9038   16.9283 C   0  0  0  0  0  0  0  0  0  0  0  0
  1 21  4  0
  1 23  4  0
  2  5  1  0
  2 13  4  0
  2 16  4  0
  3  6  4  0
  3  7  4  0
  4 13  4  0
  4 19  4  0
  4 24  4  0
  6 23  4  0
  7 16  1  0
  7 21  4  0
  8 18  1  0
  9 20  4  0
  9 22  4  0
 10 17  1  0
 10 25  1  0
 11 16  4  0
 11 19  4  0
 12 15  4  0
 12 22  4  0
 14 24  4  0
 14 25  4  0
 15 17  4  0
 17 20  4  0
 18 23  1  0
 19 25  4  0
M  END
$$$$

 Created by Python create_sdf_string function

 25 28  0  0  0  0  0  0  0  0999 V2000
   13.1533   -5.2399   21.0682 C   0  0  0  0  0  0  0  0  0  0  0  0
   10.4729   -4.0295   17.6135 C   0  0  0  0  0  0  0  0  0  0  0  0
   10.4789   -4.3641   20.9564 C   0  0  0  0  0  0  0  0  0  0  0  0
    8.7421   -5.1412   16.3650 C   0  0  0  0  0  0  0  0  0  0  0  0
   11.4353   -2.9204   17.8044 C   0  0  0  0  0  0  0  0  0  0  0  0
   11.1529   -4.3028   22.1277 C   0  0  0  0  0  0  0  0  0  0  0  0
   11.1290   -4.8502   19.8052 C   0  0  0  0  0  0  0  0  0  0  0  0
   12.4329   -4.2159   24.4224 C   0  0  0  0  0  0  0  0  0  0  0  0
    3.4740   -9.0387   16.5022 C   0  0  0  0  0  0  0  0  0  0  0  0
    6.8384   -7.9290   17.5282 N   0  0  0  0  0  0  0  0  0  0  0  0
    9.4126   -5.9853   18.4899 C   0  0  0  0  0  0  0  0  0  0  0  0
    4.2064  -10.3242   18.3302 C   0  0  0  0  0  0  0  0  0  0  0  0
    9.6599   -4.1551   16.4796 N   0  0  0  0  0  0  0  0  0  0  0  0
    7.0644   -6.4612   15.7375 N   0  0  0  0  0  0  0  0  0  0  0  0
    5.3549   -9.6322   18.3190 C   0  0  0  0  0  0  0  0  0  0  0  0
   10.3704   -4.9638   18.6510 C   0  0  0  0  0  0  0  0  0  0  0  0
    5.5935   -8.6419   17.4234 C   0  0  0  0  0  0  0  0  0  0  0  0
   13.0726   -4.6648   23.3394 O   0  0  0  0  0  0  0  0  0  0  0  0
    8.5955   -6.0705   17.3996 C   0  0  0  0  0  0  0  0  0  0  0  0
    4.6223   -8.3832   16.5030 C   0  0  0  0  0  0  0  0  0  0  0  0
   12.4690   -5.2624   19.9024 C   0  0  0  0  0  0  0  0  0  0  0  0
    3.2548   -9.9919   17.4189 C   0  0  0  0  0  0  0  0  0  0  0  0
   12.4767   -4.7393   22.1790 C   0  0  0  0  0  0  0  0  0  0  0  0
    7.8593   -5.3772   15.3569 N   0  0  0  0  0  0  0  0  0  0  0  0
    7.4412   -6.9038   16.9283 C   0  0  0  0  0  0  0  0  0  0  0  0
  1 21  4  0
  1 23  4  0
  2  5  1  0
  2 13  4  0
  2 16  4  0
  3  6  4  0
  3  7  4  0
  4 13  4  0
  4 19  4  0
  4 24  4  0
  6 23  4  0
  7 16  1  0
  7 21  4  0
  8 18  1  0
  9 20  4  0
  9 22  4  0
 10 17  1  0
 10 25  1  0
 11 16  4  0
 11 19  4  0
 12 15  4  0
 12 22  4  0
 14 24  4  0
 14 25  4  0
 15 17  4  0
 17 20  4  0
 18 23  1  0
 19 25  4  0
M  END
$$$$

 Created by Python create_sdf_string function

 25 28  0  0  0  0  0  0  0  0999 V2000
   13.1533   -5.2399   21.0682 C   0  0  0  0  0  0  0  0  0  0  0  0
   10.4729   -4.0295   17.6135 C   0  0  0  0  0  0  0  0  0  0  0  0
   10.4789   -4.3641   20.9564 C   0  0  0  0  0  0  0  0  0  0  0  0
    8.7421   -5.1412   16.3650 C   0  0  0  0  0  0  0  0  0  0  0  0
   11.4353   -2.9204   17.8044 C   0  0  0  0  0  0  0  0  0  0  0  0
   11.1529   -4.3028   22.1277 C   0  0  0  0  0  0  0  0  0  0  0  0
   11.1290   -4.8502   19.8052 C   0  0  0  0  0  0  0  0  0  0  0  0
   12.4329   -4.2159   24.4224 C   0  0  0  0  0  0  0  0  0  0  0  0
    3.4740   -9.0387   16.5022 C   0  0  0  0  0  0  0  0  0  0  0  0
    6.8384   -7.9290   17.5282 N   0  0  0  0  0  0  0  0  0  0  0  0
    9.4126   -5.9853   18.4899 C   0  0  0  0  0  0  0  0  0  0  0  0
    4.2064  -10.3242   18.3302 C   0  0  0  0  0  0  0  0  0  0  0  0
    9.6599   -4.1551   16.4796 N   0  0  0  0  0  0  0  0  0  0  0  0
    7.0644   -6.4612   15.7375 N   0  0  0  0  0  0  0  0  0  0  0  0
    5.3549   -9.6322   18.3190 C   0  0  0  0  0  0  0  0  0  0  0  0
   10.3704   -4.9638   18.6510 C   0  0  0  0  0  0  0  0  0  0  0  0
    5.5935   -8.6419   17.4234 C   0  0  0  0  0  0  0  0  0  0  0  0
   13.0726   -4.6648   23.3394 O   0  0  0  0  0  0  0  0  0  0  0  0
    8.5955   -6.0705   17.3996 C   0  0  0  0  0  0  0  0  0  0  0  0
    4.6223   -8.3832   16.5030 C   0  0  0  0  0  0  0  0  0  0  0  0
   12.4690   -5.2624   19.9024 C   0  0  0  0  0  0  0  0  0  0  0  0
    3.2548   -9.9919   17.4189 C   0  0  0  0  0  0  0  0  0  0  0  0
   12.4767   -4.7393   22.1790 C   0  0  0  0  0  0  0  0  0  0  0  0
    7.8593   -5.3772   15.3569 N   0  0  0  0  0  0  0  0  0  0  0  0
    7.4412   -6.9038   16.9283 C   0  0  0  0  0  0  0  0  0  0  0  0
  1 21  4  0
  1 23  4  0
  2  5  1  0
  2 13  4  0
  2 16  4  0
  3  6  4  0
  3  7  4  0
  4 13  4  0
  4 19  4  0
  4 24  4  0
  6 23  4  0
  7 16  1  0
  7 21  4  0
  8 18  1  0
  9 20  4  0
  9 22  4  0
 10 17  1  0
 10 25  1  0
 11 16  4  0
 11 19  4  0
 12 15  4  0
 12 22  4  0
 14 24  4  0
 14 25  4  0
 15 17  4  0
 17 20  4  0
 18 23  1  0
 19 25  4  0
M  END
$$$$

 Created by Python create_sdf_string function

 25 28  0  0  0  0  0  0  0  0999 V2000
   13.1533   -5.2399   21.0682 C   0  0  0  0  0  0  0  0  0  0  0  0
   10.4729   -4.0295   17.6135 C   0  0  0  0  0  0  0  0  0  0  0  0
   10.4789   -4.3641   20.9564 C   0  0  0  0  0  0  0  0  0  0  0  0
    8.7421   -5.1412   16.3650 C   0  0  0  0  0  0  0  0  0  0  0  0
   11.4353   -2.9204   17.8044 C   0  0  0  0  0  0  0  0  0  0  0  0
   11.1529   -4.3028   22.1277 C   0  0  0  0  0  0  0  0  0  0  0  0
   11.1290   -4.8502   19.8052 C   0  0  0  0  0  0  0  0  0  0  0  0
   12.4329   -4.2159   24.4224 C   0  0  0  0  0  0  0  0  0  0  0  0
    3.4740   -9.0387   16.5022 C   0  0  0  0  0  0  0  0  0  0  0  0
    6.8384   -7.9290   17.5282 N   0  0  0  0  0  0  0  0  0  0  0  0
    9.4126   -5.9853   18.4899 C   0  0  0  0  0  0  0  0  0  0  0  0
    4.2064  -10.3242   18.3302 C   0  0  0  0  0  0  0  0  0  0  0  0
    9.6599   -4.1551   16.4796 N   0  0  0  0  0  0  0  0  0  0  0  0
    7.0644   -6.4612   15.7375 N   0  0  0  0  0  0  0  0  0  0  0  0
    5.3549   -9.6322   18.3190 C   0  0  0  0  0  0  0  0  0  0  0  0
   10.3704   -4.9638   18.6510 C   0  0  0  0  0  0  0  0  0  0  0  0
    5.5935   -8.6419   17.4234 C   0  0  0  0  0  0  0  0  0  0  0  0
   13.0726   -4.6648   23.3394 O   0  0  0  0  0  0  0  0  0  0  0  0
    8.5955   -6.0705   17.3996 C   0  0  0  0  0  0  0  0  0  0  0  0
    4.6223   -8.3832   16.5030 C   0  0  0  0  0  0  0  0  0  0  0  0
   12.4690   -5.2624   19.9024 C   0  0  0  0  0  0  0  0  0  0  0  0
    3.2548   -9.9919   17.4189 C   0  0  0  0  0  0  0  0  0  0  0  0
   12.4767   -4.7393   22.1790 C   0  0  0  0  0  0  0  0  0  0  0  0
    7.8593   -5.3772   15.3569 N   0  0  0  0  0  0  0  0  0  0  0  0
    7.4412   -6.9038   16.9283 C   0  0  0  0  0  0  0  0  0  0  0  0
  1 21  4  0
  1 23  4  0
  2  5  1  0
  2 13  4  0
  2 16  4  0
  3  6  4  0
  3  7  4  0
  4 13  4  0
  4 19  4  0
  4 24  4  0
  6 23  4  0
  7 16  1  0
  7 21  4  0
  8 18  1  0
  9 20  4  0
  9 22  4  0
 10 17  1  0
 10 25  1  0
 11 16  4  0
 11 19  4  0
 12 15  4  0
 12 22  4  0
 14 24  4  0
 14 25  4  0
 15 17  4  0
 17 20  4  0
 18 23  1  0
 19 25  4  0
M  END
$$$$

 Created by Python create_sdf_string function

 25 28  0  0  0  0  0  0  0  0999 V2000
   13.1533   -5.2399   21.0682 C   0  0  0  0  0  0  0  0  0  0  0  0
   10.4729   -4.0295   17.6135 C   0  0  0  0  0  0  0  0  0  0  0  0
   10.4789   -4.3641   20.9564 C   0  0  0  0  0  0  0  0  0  0  0  0
    8.7421   -5.1412   16.3650 C   0  0  0  0  0  0  0  0  0  0  0  0
   11.4353   -2.9204   17.8044 C   0  0  0  0  0  0  0  0  0  0  0  0
   11.1529   -4.3028   22.1277 C   0  0  0  0  0  0  0  0  0  0  0  0
   11.1290   -4.8502   19.8052 C   0  0  0  0  0  0  0  0  0  0  0  0
   12.4329   -4.2159   24.4224 C   0  0  0  0  0  0  0  0  0  0  0  0
    3.4740   -9.0387   16.5022 C   0  0  0  0  0  0  0  0  0  0  0  0
    6.8384   -7.9290   17.5282 N   0  0  0  0  0  0  0  0  0  0  0  0
    9.4126   -5.9853   18.4899 C   0  0  0  0  0  0  0  0  0  0  0  0
    4.2064  -10.3242   18.3302 C   0  0  0  0  0  0  0  0  0  0  0  0
    9.6599   -4.1551   16.4796 N   0  0  0  0  0  0  0  0  0  0  0  0
    7.0644   -6.4612   15.7375 N   0  0  0  0  0  0  0  0  0  0  0  0
    5.3549   -9.6322   18.3190 C   0  0  0  0  0  0  0  0  0  0  0  0
   10.3704   -4.9638   18.6510 C   0  0  0  0  0  0  0  0  0  0  0  0
    5.5935   -8.6419   17.4234 C   0  0  0  0  0  0  0  0  0  0  0  0
   13.0726   -4.6648   23.3394 O   0  0  0  0  0  0  0  0  0  0  0  0
    8.5955   -6.0705   17.3996 C   0  0  0  0  0  0  0  0  0  0  0  0
    4.6223   -8.3832   16.5030 C   0  0  0  0  0  0  0  0  0  0  0  0
   12.4690   -5.2624   19.9024 C   0  0  0  0  0  0  0  0  0  0  0  0
    3.2548   -9.9919   17.4189 C   0  0  0  0  0  0  0  0  0  0  0  0
   12.4767   -4.7393   22.1790 C   0  0  0  0  0  0  0  0  0  0  0  0
    7.8593   -5.3772   15.3569 N   0  0  0  0  0  0  0  0  0  0  0  0
    7.4412   -6.9038   16.9283 C   0  0  0  0  0  0  0  0  0  0  0  0
  1 21  4  0
  1 23  4  0
  2  5  1  0
  2 13  4  0
  2 16  4  0
  3  6  4  0
  3  7  4  0
  4 13  4  0
  4 19  4  0
  4 24  4  0
  6 23  4  0
  7 16  1  0
  7 21  4  0
  8 18  1  0
  9 20  4  0
  9 22  4  0
 10 17  1  0
 10 25  1  0
 11 16  4  0
 11 19  4  0
 12 15  4  0
 12 22  4  0
 14 24  4  0
 14 25  4  0
 15 17  4  0
 17 20  4  0
 18 23  1  0
 19 25  4  0
M  END
$$$$

 Created by Python create_sdf_string function

 25 28  0  0  0  0  0  0  0  0999 V2000
   13.1533   -5.2399   21.0682 C   0  0  0  0  0  0  0  0  0  0  0  0
   10.4729   -4.0295   17.6135 C   0  0  0  0  0  0  0  0  0  0  0  0
   10.4789   -4.3641   20.9564 C   0  0  0  0  0  0  0  0  0  0  0  0
    8.7421   -5.1412   16.3650 C   0  0  0  0  0  0  0  0  0  0  0  0
   11.4353   -2.9204   17.8044 C   0  0  0  0  0  0  0  0  0  0  0  0
   11.1529   -4.3028   22.1277 C   0  0  0  0  0  0  0  0  0  0  0  0
   11.1290   -4.8502   19.8052 C   0  0  0  0  0  0  0  0  0  0  0  0
   12.4329   -4.2159   24.4224 C   0  0  0  0  0  0  0  0  0  0  0  0
    3.4740   -9.0387   16.5022 C   0  0  0  0  0  0  0  0  0  0  0  0
    6.8384   -7.9290   17.5282 N   0  0  0  0  0  0  0  0  0  0  0  0
    9.4126   -5.9853   18.4899 C   0  0  0  0  0  0  0  0  0  0  0  0
    4.2064  -10.3242   18.3302 C   0  0  0  0  0  0  0  0  0  0  0  0
    9.6599   -4.1551   16.4796 N   0  0  0  0  0  0  0  0  0  0  0  0
    7.0644   -6.4612   15.7375 N   0  0  0  0  0  0  0  0  0  0  0  0
    5.3549   -9.6322   18.3190 C   0  0  0  0  0  0  0  0  0  0  0  0
   10.3704   -4.9638   18.6510 C   0  0  0  0  0  0  0  0  0  0  0  0
    5.5935   -8.6419   17.4234 C   0  0  0  0  0  0  0  0  0  0  0  0
   13.0726   -4.6648   23.3394 O   0  0  0  0  0  0  0  0  0  0  0  0
    8.5955   -6.0705   17.3996 C   0  0  0  0  0  0  0  0  0  0  0  0
    4.6223   -8.3832   16.5030 C   0  0  0  0  0  0  0  0  0  0  0  0
   12.4690   -5.2624   19.9024 C   0  0  0  0  0  0  0  0  0  0  0  0
    3.2548   -9.9919   17.4189 C   0  0  0  0  0  0  0  0  0  0  0  0
   12.4767   -4.7393   22.1790 C   0  0  0  0  0  0  0  0  0  0  0  0
    7.8593   -5.3772   15.3569 N   0  0  0  0  0  0  0  0  0  0  0  0
    7.4412   -6.9038   16.9283 C   0  0  0  0  0  0  0  0  0  0  0  0
  1 21  4  0
  1 23  4  0
  2  5  1  0
  2 13  4  0
  2 16  4  0
  3  6  4  0
  3  7  4  0
  4 13  4  0
  4 19  4  0
  4 24  4  0
  6 23  4  0
  7 16  1  0
  7 21  4  0
  8 18  1  0
  9 20  4  0
  9 22  4  0
 10 17  1  0
 10 25  1  0
 11 16  4  0
 11 19  4  0
 12 15  4  0
 12 22  4  0
 14 24  4  0
 14 25  4  0
 15 17  4  0
 17 20  4  0
 18 23  1  0
 19 25  4  0
M  END
$$$$

 Created by Python create_sdf_string function

 25 28  0  0  0  0  0  0  0  0999 V2000
   13.1533   -5.2399   21.0682 C   0  0  0  0  0  0  0  0  0  0  0  0
   10.4729   -4.0295   17.6135 C   0  0  0  0  0  0  0  0  0  0  0  0
   10.4789   -4.3641   20.9564 C   0  0  0  0  0  0  0  0  0  0  0  0
    8.7421   -5.1412   16.3650 C   0  0  0  0  0  0  0  0  0  0  0  0
   11.4353   -2.9204   17.8044 C   0  0  0  0  0  0  0  0  0  0  0  0
   11.1529   -4.3028   22.1277 C   0  0  0  0  0  0  0  0  0  0  0  0
   11.1290   -4.8502   19.8052 C   0  0  0  0  0  0  0  0  0  0  0  0
   12.4329   -4.2159   24.4224 C   0  0  0  0  0  0  0  0  0  0  0  0
    3.4740   -9.0387   16.5022 C   0  0  0  0  0  0  0  0  0  0  0  0
    6.8384   -7.9290   17.5282 N   0  0  0  0  0  0  0  0  0  0  0  0
    9.4126   -5.9853   18.4899 C   0  0  0  0  0  0  0  0  0  0  0  0
    4.2064  -10.3242   18.3302 C   0  0  0  0  0  0  0  0  0  0  0  0
    9.6599   -4.1551   16.4796 N   0  0  0  0  0  0  0  0  0  0  0  0
    7.0644   -6.4612   15.7375 N   0  0  0  0  0  0  0  0  0  0  0  0
    5.3549   -9.6322   18.3190 C   0  0  0  0  0  0  0  0  0  0  0  0
   10.3704   -4.9638   18.6510 C   0  0  0  0  0  0  0  0  0  0  0  0
    5.5935   -8.6419   17.4234 C   0  0  0  0  0  0  0  0  0  0  0  0
   13.0726   -4.6648   23.3394 O   0  0  0  0  0  0  0  0  0  0  0  0
    8.5955   -6.0705   17.3996 C   0  0  0  0  0  0  0  0  0  0  0  0
    4.6223   -8.3832   16.5030 C   0  0  0  0  0  0  0  0  0  0  0  0
   12.4690   -5.2624   19.9024 C   0  0  0  0  0  0  0  0  0  0  0  0
    3.2548   -9.9919   17.4189 C   0  0  0  0  0  0  0  0  0  0  0  0
   12.4767   -4.7393   22.1790 C   0  0  0  0  0  0  0  0  0  0  0  0
    7.8593   -5.3772   15.3569 N   0  0  0  0  0  0  0  0  0  0  0  0
    7.4412   -6.9038   16.9283 C   0  0  0  0  0  0  0  0  0  0  0  0
  1 21  4  0
  1 23  4  0
  2  5  1  0
  2 13  4  0
  2 16  4  0
  3  6  4  0
  3  7  4  0
  4 13  4  0
  4 19  4  0
  4 24  4  0
  6 23  4  0
  7 16  1  0
  7 21  4  0
  8 18  1  0
  9 20  4  0
  9 22  4  0
 10 17  1  0
 10 25  1  0
 11 16  4  0
 11 19  4  0
 12 15  4  0
 12 22  4  0
 14 24  4  0
 14 25  4  0
 15 17  4  0
 17 20  4  0
 18 23  1  0
 19 25  4  0
M  END
$$$$

 Created by Python create_sdf_string function

 25 28  0  0  0  0  0  0  0  0999 V2000
   13.1533   -5.2399   21.0682 C   0  0  0  0  0  0  0  0  0  0  0  0
   10.4729   -4.0295   17.6135 C   0  0  0  0  0  0  0  0  0  0  0  0
   10.4789   -4.3641   20.9564 C   0  0  0  0  0  0  0  0  0  0  0  0
    8.7421   -5.1412   16.3650 C   0  0  0  0  0  0  0  0  0  0  0  0
   11.4353   -2.9204   17.8044 C   0  0  0  0  0  0  0  0  0  0  0  0
   11.1529   -4.3028   22.1277 C   0  0  0  0  0  0  0  0  0  0  0  0
   11.1290   -4.8502   19.8052 C   0  0  0  0  0  0  0  0  0  0  0  0
   12.4329   -4.2159   24.4224 C   0  0  0  0  0  0  0  0  0  0  0  0
    3.4740   -9.0387   16.5022 C   0  0  0  0  0  0  0  0  0  0  0  0
    6.8384   -7.9290   17.5282 N   0  0  0  0  0  0  0  0  0  0  0  0
    9.4126   -5.9853   18.4899 C   0  0  0  0  0  0  0  0  0  0  0  0
    4.2064  -10.3242   18.3302 C   0  0  0  0  0  0  0  0  0  0  0  0
    9.6599   -4.1551   16.4796 N   0  0  0  0  0  0  0  0  0  0  0  0
    7.0644   -6.4612   15.7375 N   0  0  0  0  0  0  0  0  0  0  0  0
    5.3549   -9.6322   18.3190 C   0  0  0  0  0  0  0  0  0  0  0  0
   10.3704   -4.9638   18.6510 C   0  0  0  0  0  0  0  0  0  0  0  0
    5.5935   -8.6419   17.4234 C   0  0  0  0  0  0  0  0  0  0  0  0
   13.0726   -4.6648   23.3394 O   0  0  0  0  0  0  0  0  0  0  0  0
    8.5955   -6.0705   17.3996 C   0  0  0  0  0  0  0  0  0  0  0  0
    4.6223   -8.3832   16.5030 C   0  0  0  0  0  0  0  0  0  0  0  0
   12.4690   -5.2624   19.9024 C   0  0  0  0  0  0  0  0  0  0  0  0
    3.2548   -9.9919   17.4189 C   0  0  0  0  0  0  0  0  0  0  0  0
   12.4767   -4.7393   22.1790 C   0  0  0  0  0  0  0  0  0  0  0  0
    7.8593   -5.3772   15.3569 N   0  0  0  0  0  0  0  0  0  0  0  0
    7.4412   -6.9038   16.9283 C   0  0  0  0  0  0  0  0  0  0  0  0
  1 21  4  0
  1 23  4  0
  2  5  1  0
  2 13  4  0
  2 16  4  0
  3  6  4  0
  3  7  4  0
  4 13  4  0
  4 19  4  0
  4 24  4  0
  6 23  4  0
  7 16  1  0
  7 21  4  0
  8 18  1  0
  9 20  4  0
  9 22  4  0
 10 17  1  0
 10 25  1  0
 11 16  4  0
 11 19  4  0
 12 15  4  0
 12 22  4  0
 14 24  4  0
 14 25  4  0
 15 17  4  0
 17 20  4  0
 18 23  1  0
 19 25  4  0
M  END
$$$$

 Created by Python create_sdf_string function

 25 28  0  0  0  0  0  0  0  0999 V2000
   13.1533   -5.2399   21.0682 C   0  0  0  0  0  0  0  0  0  0  0  0
   10.4729   -4.0295   17.6135 C   0  0  0  0  0  0  0  0  0  0  0  0
   10.4789   -4.3641   20.9564 C   0  0  0  0  0  0  0  0  0  0  0  0
    8.7421   -5.1412   16.3650 C   0  0  0  0  0  0  0  0  0  0  0  0
   11.4353   -2.9204   17.8044 C   0  0  0  0  0  0  0  0  0  0  0  0
   11.1529   -4.3028   22.1277 C   0  0  0  0  0  0  0  0  0  0  0  0
   11.1290   -4.8502   19.8052 C   0  0  0  0  0  0  0  0  0  0  0  0
   12.4329   -4.2159   24.4224 C   0  0  0  0  0  0  0  0  0  0  0  0
    3.4740   -9.0387   16.5022 C   0  0  0  0  0  0  0  0  0  0  0  0
    6.8384   -7.9290   17.5282 N   0  0  0  0  0  0  0  0  0  0  0  0
    9.4126   -5.9853   18.4899 C   0  0  0  0  0  0  0  0  0  0  0  0
    4.2064  -10.3242   18.3302 C   0  0  0  0  0  0  0  0  0  0  0  0
    9.6599   -4.1551   16.4796 N   0  0  0  0  0  0  0  0  0  0  0  0
    7.0644   -6.4612   15.7375 N   0  0  0  0  0  0  0  0  0  0  0  0
    5.3549   -9.6322   18.3190 C   0  0  0  0  0  0  0  0  0  0  0  0
   10.3704   -4.9638   18.6510 C   0  0  0  0  0  0  0  0  0  0  0  0
    5.5935   -8.6419   17.4234 C   0  0  0  0  0  0  0  0  0  0  0  0
   13.0726   -4.6648   23.3394 O   0  0  0  0  0  0  0  0  0  0  0  0
    8.5955   -6.0705   17.3996 C   0  0  0  0  0  0  0  0  0  0  0  0
    4.6223   -8.3832   16.5030 C   0  0  0  0  0  0  0  0  0  0  0  0
   12.4690   -5.2624   19.9024 C   0  0  0  0  0  0  0  0  0  0  0  0
    3.2548   -9.9919   17.4189 C   0  0  0  0  0  0  0  0  0  0  0  0
   12.4767   -4.7393   22.1790 C   0  0  0  0  0  0  0  0  0  0  0  0
    7.8593   -5.3772   15.3569 N   0  0  0  0  0  0  0  0  0  0  0  0
    7.4412   -6.9038   16.9283 C   0  0  0  0  0  0  0  0  0  0  0  0
  1 21  4  0
  1 23  4  0
  2  5  1  0
  2 13  4  0
  2 16  4  0
  3  6  4  0
  3  7  4  0
  4 13  4  0
  4 19  4  0
  4 24  4  0
  6 23  4  0
  7 16  1  0
  7 21  4  0
  8 18  1  0
  9 20  4  0
  9 22  4  0
 10 17  1  0
 10 25  1  0
 11 16  4  0
 11 19  4  0
 12 15  4  0
 12 22  4  0
 14 24  4  0
 14 25  4  0
 15 17  4  0
 17 20  4  0
 18 23  1  0
 19 25  4  0
M  END
$$$$

 Created by Python create_sdf_string function

 25 28  0  0  0  0  0  0  0  0999 V2000
   13.1533   -5.2399   21.0682 C   0  0  0  0  0  0  0  0  0  0  0  0
   10.4729   -4.0295   17.6135 C   0  0  0  0  0  0  0  0  0  0  0  0
   10.4789   -4.3641   20.9564 C   0  0  0  0  0  0  0  0  0  0  0  0
    8.7421   -5.1412   16.3650 C   0  0  0  0  0  0  0  0  0  0  0  0
   11.4353   -2.9204   17.8044 C   0  0  0  0  0  0  0  0  0  0  0  0
   11.1529   -4.3028   22.1277 C   0  0  0  0  0  0  0  0  0  0  0  0
   11.1290   -4.8502   19.8052 C   0  0  0  0  0  0  0  0  0  0  0  0
   12.4329   -4.2159   24.4224 C   0  0  0  0  0  0  0  0  0  0  0  0
    3.4740   -9.0387   16.5022 C   0  0  0  0  0  0  0  0  0  0  0  0
    6.8384   -7.9290   17.5282 N   0  0  0  0  0  0  0  0  0  0  0  0
    9.4126   -5.9853   18.4899 C   0  0  0  0  0  0  0  0  0  0  0  0
    4.2064  -10.3242   18.3302 C   0  0  0  0  0  0  0  0  0  0  0  0
    9.6599   -4.1551   16.4796 N   0  0  0  0  0  0  0  0  0  0  0  0
    7.0644   -6.4612   15.7375 N   0  0  0  0  0  0  0  0  0  0  0  0
    5.3549   -9.6322   18.3190 C   0  0  0  0  0  0  0  0  0  0  0  0
   10.3704   -4.9638   18.6510 C   0  0  0  0  0  0  0  0  0  0  0  0
    5.5935   -8.6419   17.4234 C   0  0  0  0  0  0  0  0  0  0  0  0
   13.0726   -4.6648   23.3394 O   0  0  0  0  0  0  0  0  0  0  0  0
    8.5955   -6.0705   17.3996 C   0  0  0  0  0  0  0  0  0  0  0  0
    4.6223   -8.3832   16.5030 C   0  0  0  0  0  0  0  0  0  0  0  0
   12.4690   -5.2624   19.9024 C   0  0  0  0  0  0  0  0  0  0  0  0
    3.2548   -9.9919   17.4189 C   0  0  0  0  0  0  0  0  0  0  0  0
   12.4767   -4.7393   22.1790 C   0  0  0  0  0  0  0  0  0  0  0  0
    7.8593   -5.3772   15.3569 N   0  0  0  0  0  0  0  0  0  0  0  0
    7.4412   -6.9038   16.9283 C   0  0  0  0  0  0  0  0  0  0  0  0
  1 21  4  0
  1 23  4  0
  2  5  1  0
  2 13  4  0
  2 16  4  0
  3  6  4  0
  3  7  4  0
  4 13  4  0
  4 19  4  0
  4 24  4  0
  6 23  4  0
  7 16  1  0
  7 21  4  0
  8 18  1  0
  9 20  4  0
  9 22  4  0
 10 17  1  0
 10 25  1  0
 11 16  4  0
 11 19  4  0
 12 15  4  0
 12 22  4  0
 14 24  4  0
 14 25  4  0
 15 17  4  0
 17 20  4  0
 18 23  1  0
 19 25  4  0
M  END
$$$$

 Created by Python create_sdf_string function

 25 28  0  0  0  0  0  0  0  0999 V2000
   13.1533   -5.2399   21.0682 C   0  0  0  0  0  0  0  0  0  0  0  0
   10.4729   -4.0295   17.6135 C   0  0  0  0  0  0  0  0  0  0  0  0
   10.4789   -4.3641   20.9564 C   0  0  0  0  0  0  0  0  0  0  0  0
    8.7421   -5.1412   16.3650 C   0  0  0  0  0  0  0  0  0  0  0  0
   11.4353   -2.9204   17.8044 C   0  0  0  0  0  0  0  0  0  0  0  0
   11.1529   -4.3028   22.1277 C   0  0  0  0  0  0  0  0  0  0  0  0
   11.1290   -4.8502   19.8052 C   0  0  0  0  0  0  0  0  0  0  0  0
   12.4329   -4.2159   24.4224 C   0  0  0  0  0  0  0  0  0  0  0  0
    3.4740   -9.0387   16.5022 C   0  0  0  0  0  0  0  0  0  0  0  0
    6.8384   -7.9290   17.5282 N   0  0  0  0  0  0  0  0  0  0  0  0
    9.4126   -5.9853   18.4899 C   0  0  0  0  0  0  0  0  0  0  0  0
    4.2064  -10.3242   18.3302 C   0  0  0  0  0  0  0  0  0  0  0  0
    9.6599   -4.1551   16.4796 N   0  0  0  0  0  0  0  0  0  0  0  0
    7.0644   -6.4612   15.7375 N   0  0  0  0  0  0  0  0  0  0  0  0
    5.3549   -9.6322   18.3190 C   0  0  0  0  0  0  0  0  0  0  0  0
   10.3704   -4.9638   18.6510 C   0  0  0  0  0  0  0  0  0  0  0  0
    5.5935   -8.6419   17.4234 C   0  0  0  0  0  0  0  0  0  0  0  0
   13.0726   -4.6648   23.3394 O   0  0  0  0  0  0  0  0  0  0  0  0
    8.5955   -6.0705   17.3996 C   0  0  0  0  0  0  0  0  0  0  0  0
    4.6223   -8.3832   16.5030 C   0  0  0  0  0  0  0  0  0  0  0  0
   12.4690   -5.2624   19.9024 C   0  0  0  0  0  0  0  0  0  0  0  0
    3.2548   -9.9919   17.4189 C   0  0  0  0  0  0  0  0  0  0  0  0
   12.4767   -4.7393   22.1790 C   0  0  0  0  0  0  0  0  0  0  0  0
    7.8593   -5.3772   15.3569 N   0  0  0  0  0  0  0  0  0  0  0  0
    7.4412   -6.9038   16.9283 C   0  0  0  0  0  0  0  0  0  0  0  0
  1 21  4  0
  1 23  4  0
  2  5  1  0
  2 13  4  0
  2 16  4  0
  3  6  4  0
  3  7  4  0
  4 13  4  0
  4 19  4  0
  4 24  4  0
  6 23  4  0
  7 16  1  0
  7 21  4  0
  8 18  1  0
  9 20  4  0
  9 22  4  0
 10 17  1  0
 10 25  1  0
 11 16  4  0
 11 19  4  0
 12 15  4  0
 12 22  4  0
 14 24  4  0
 14 25  4  0
 15 17  4  0
 17 20  4  0
 18 23  1  0
 19 25  4  0
M  END
$$$$

 Created by Python create_sdf_string function

 25 28  0  0  0  0  0  0  0  0999 V2000
   13.1533   -5.2399   21.0682 C   0  0  0  0  0  0  0  0  0  0  0  0
   10.4729   -4.0295   17.6135 C   0  0  0  0  0  0  0  0  0  0  0  0
   10.4789   -4.3641   20.9564 C   0  0  0  0  0  0  0  0  0  0  0  0
    8.7421   -5.1412   16.3650 C   0  0  0  0  0  0  0  0  0  0  0  0
   11.4353   -2.9204   17.8044 C   0  0  0  0  0  0  0  0  0  0  0  0
   11.1529   -4.3028   22.1277 C   0  0  0  0  0  0  0  0  0  0  0  0
   11.1290   -4.8502   19.8052 C   0  0  0  0  0  0  0  0  0  0  0  0
   12.4329   -4.2159   24.4224 C   0  0  0  0  0  0  0  0  0  0  0  0
    3.4740   -9.0387   16.5022 C   0  0  0  0  0  0  0  0  0  0  0  0
    6.8384   -7.9290   17.5282 N   0  0  0  0  0  0  0  0  0  0  0  0
    9.4126   -5.9853   18.4899 C   0  0  0  0  0  0  0  0  0  0  0  0
    4.2064  -10.3242   18.3302 C   0  0  0  0  0  0  0  0  0  0  0  0
    9.6599   -4.1551   16.4796 N   0  0  0  0  0  0  0  0  0  0  0  0
    7.0644   -6.4612   15.7375 N   0  0  0  0  0  0  0  0  0  0  0  0
    5.3549   -9.6322   18.3190 C   0  0  0  0  0  0  0  0  0  0  0  0
   10.3704   -4.9638   18.6510 C   0  0  0  0  0  0  0  0  0  0  0  0
    5.5935   -8.6419   17.4234 C   0  0  0  0  0  0  0  0  0  0  0  0
   13.0726   -4.6648   23.3394 O   0  0  0  0  0  0  0  0  0  0  0  0
    8.5955   -6.0705   17.3996 C   0  0  0  0  0  0  0  0  0  0  0  0
    4.6223   -8.3832   16.5030 C   0  0  0  0  0  0  0  0  0  0  0  0
   12.4690   -5.2624   19.9024 C   0  0  0  0  0  0  0  0  0  0  0  0
    3.2548   -9.9919   17.4189 C   0  0  0  0  0  0  0  0  0  0  0  0
   12.4767   -4.7393   22.1790 C   0  0  0  0  0  0  0  0  0  0  0  0
    7.8593   -5.3772   15.3569 N   0  0  0  0  0  0  0  0  0  0  0  0
    7.4412   -6.9038   16.9283 C   0  0  0  0  0  0  0  0  0  0  0  0
  1 21  4  0
  1 23  4  0
  2  5  1  0
  2 13  4  0
  2 16  4  0
  3  6  4  0
  3  7  4  0
  4 13  4  0
  4 19  4  0
  4 24  4  0
  6 23  4  0
  7 16  1  0
  7 21  4  0
  8 18  1  0
  9 20  4  0
  9 22  4  0
 10 17  1  0
 10 25  1  0
 11 16  4  0
 11 19  4  0
 12 15  4  0
 12 22  4  0
 14 24  4  0
 14 25  4  0
 15 17  4  0
 17 20  4  0
 18 23  1  0
 19 25  4  0
M  END
$$$$

 Created by Python create_sdf_string function

 25 28  0  0  0  0  0  0  0  0999 V2000
   13.1533   -5.2399   21.0682 C   0  0  0  0  0  0  0  0  0  0  0  0
   10.4729   -4.0295   17.6135 C   0  0  0  0  0  0  0  0  0  0  0  0
   10.4789   -4.3641   20.9564 C   0  0  0  0  0  0  0  0  0  0  0  0
    8.7421   -5.1412   16.3650 C   0  0  0  0  0  0  0  0  0  0  0  0
   11.4353   -2.9204   17.8044 C   0  0  0  0  0  0  0  0  0  0  0  0
   11.1529   -4.3028   22.1277 C   0  0  0  0  0  0  0  0  0  0  0  0
   11.1290   -4.8502   19.8052 C   0  0  0  0  0  0  0  0  0  0  0  0
   12.4329   -4.2159   24.4224 C   0  0  0  0  0  0  0  0  0  0  0  0
    3.4740   -9.0387   16.5022 C   0  0  0  0  0  0  0  0  0  0  0  0
    6.8384   -7.9290   17.5282 N   0  0  0  0  0  0  0  0  0  0  0  0
    9.4126   -5.9853   18.4899 C   0  0  0  0  0  0  0  0  0  0  0  0
    4.2064  -10.3242   18.3302 C   0  0  0  0  0  0  0  0  0  0  0  0
    9.6599   -4.1551   16.4796 N   0  0  0  0  0  0  0  0  0  0  0  0
    7.0644   -6.4612   15.7375 N   0  0  0  0  0  0  0  0  0  0  0  0
    5.3549   -9.6322   18.3190 C   0  0  0  0  0  0  0  0  0  0  0  0
   10.3704   -4.9638   18.6510 C   0  0  0  0  0  0  0  0  0  0  0  0
    5.5935   -8.6419   17.4234 C   0  0  0  0  0  0  0  0  0  0  0  0
   13.0726   -4.6648   23.3394 O   0  0  0  0  0  0  0  0  0  0  0  0
    8.5955   -6.0705   17.3996 C   0  0  0  0  0  0  0  0  0  0  0  0
    4.6223   -8.3832   16.5030 C   0  0  0  0  0  0  0  0  0  0  0  0
   12.4690   -5.2624   19.9024 C   0  0  0  0  0  0  0  0  0  0  0  0
    3.2548   -9.9919   17.4189 C   0  0  0  0  0  0  0  0  0  0  0  0
   12.4767   -4.7393   22.1790 C   0  0  0  0  0  0  0  0  0  0  0  0
    7.8593   -5.3772   15.3569 N   0  0  0  0  0  0  0  0  0  0  0  0
    7.4412   -6.9038   16.9283 C   0  0  0  0  0  0  0  0  0  0  0  0
  1 21  4  0
  1 23  4  0
  2  5  1  0
  2 13  4  0
  2 16  4  0
  3  6  4  0
  3  7  4  0
  4 13  4  0
  4 19  4  0
  4 24  4  0
  6 23  4  0
  7 16  1  0
  7 21  4  0
  8 18  1  0
  9 20  4  0
  9 22  4  0
 10 17  1  0
 10 25  1  0
 11 16  4  0
 11 19  4  0
 12 15  4  0
 12 22  4  0
 14 24  4  0
 14 25  4  0
 15 17  4  0
 17 20  4  0
 18 23  1  0
 19 25  4  0
M  END
$$$$

 Created by Python create_sdf_string function

 25 28  0  0  0  0  0  0  0  0999 V2000
   13.1533   -5.2399   21.0682 C   0  0  0  0  0  0  0  0  0  0  0  0
   10.4729   -4.0295   17.6135 C   0  0  0  0  0  0  0  0  0  0  0  0
   10.4789   -4.3641   20.9564 C   0  0  0  0  0  0  0  0  0  0  0  0
    8.7421   -5.1412   16.3650 C   0  0  0  0  0  0  0  0  0  0  0  0
   11.4353   -2.9204   17.8044 C   0  0  0  0  0  0  0  0  0  0  0  0
   11.1529   -4.3028   22.1277 C   0  0  0  0  0  0  0  0  0  0  0  0
   11.1290   -4.8502   19.8052 C   0  0  0  0  0  0  0  0  0  0  0  0
   12.4329   -4.2159   24.4224 C   0  0  0  0  0  0  0  0  0  0  0  0
    3.4740   -9.0387   16.5022 C   0  0  0  0  0  0  0  0  0  0  0  0
    6.8384   -7.9290   17.5282 N   0  0  0  0  0  0  0  0  0  0  0  0
    9.4126   -5.9853   18.4899 C   0  0  0  0  0  0  0  0  0  0  0  0
    4.2064  -10.3242   18.3302 C   0  0  0  0  0  0  0  0  0  0  0  0
    9.6599   -4.1551   16.4796 N   0  0  0  0  0  0  0  0  0  0  0  0
    7.0644   -6.4612   15.7375 N   0  0  0  0  0  0  0  0  0  0  0  0
    5.3549   -9.6322   18.3190 C   0  0  0  0  0  0  0  0  0  0  0  0
   10.3704   -4.9638   18.6510 C   0  0  0  0  0  0  0  0  0  0  0  0
    5.5935   -8.6419   17.4234 C   0  0  0  0  0  0  0  0  0  0  0  0
   13.0726   -4.6648   23.3394 O   0  0  0  0  0  0  0  0  0  0  0  0
    8.5955   -6.0705   17.3996 C   0  0  0  0  0  0  0  0  0  0  0  0
    4.6223   -8.3832   16.5030 C   0  0  0  0  0  0  0  0  0  0  0  0
   12.4690   -5.2624   19.9024 C   0  0  0  0  0  0  0  0  0  0  0  0
    3.2548   -9.9919   17.4189 C   0  0  0  0  0  0  0  0  0  0  0  0
   12.4767   -4.7393   22.1790 C   0  0  0  0  0  0  0  0  0  0  0  0
    7.8593   -5.3772   15.3569 N   0  0  0  0  0  0  0  0  0  0  0  0
    7.4412   -6.9038   16.9283 C   0  0  0  0  0  0  0  0  0  0  0  0
  1 21  4  0
  1 23  4  0
  2  5  1  0
  2 13  4  0
  2 16  4  0
  3  6  4  0
  3  7  4  0
  4 13  4  0
  4 19  4  0
  4 24  4  0
  6 23  4  0
  7 16  1  0
  7 21  4  0
  8 18  1  0
  9 20  4  0
  9 22  4  0
 10 17  1  0
 10 25  1  0
 11 16  4  0
 11 19  4  0
 12 15  4  0
 12 22  4  0
 14 24  4  0
 14 25  4  0
 15 17  4  0
 17 20  4  0
 18 23  1  0
 19 25  4  0
M  END
$$$$

 Created by Python create_sdf_string function

 25 28  0  0  0  0  0  0  0  0999 V2000
   13.1533   -5.2399   21.0682 C   0  0  0  0  0  0  0  0  0  0  0  0
   10.4729   -4.0295   17.6135 C   0  0  0  0  0  0  0  0  0  0  0  0
   10.4789   -4.3641   20.9564 C   0  0  0  0  0  0  0  0  0  0  0  0
    8.7421   -5.1412   16.3650 C   0  0  0  0  0  0  0  0  0  0  0  0
   11.4353   -2.9204   17.8044 C   0  0  0  0  0  0  0  0  0  0  0  0
   11.1529   -4.3028   22.1277 C   0  0  0  0  0  0  0  0  0  0  0  0
   11.1290   -4.8502   19.8052 C   0  0  0  0  0  0  0  0  0  0  0  0
   12.4329   -4.2159   24.4224 C   0  0  0  0  0  0  0  0  0  0  0  0
    3.4740   -9.0387   16.5022 C   0  0  0  0  0  0  0  0  0  0  0  0
    6.8384   -7.9290   17.5282 N   0  0  0  0  0  0  0  0  0  0  0  0
    9.4126   -5.9853   18.4899 C   0  0  0  0  0  0  0  0  0  0  0  0
    4.2064  -10.3242   18.3302 C   0  0  0  0  0  0  0  0  0  0  0  0
    9.6599   -4.1551   16.4796 N   0  0  0  0  0  0  0  0  0  0  0  0
    7.0644   -6.4612   15.7375 N   0  0  0  0  0  0  0  0  0  0  0  0
    5.3549   -9.6322   18.3190 C   0  0  0  0  0  0  0  0  0  0  0  0
   10.3704   -4.9638   18.6510 C   0  0  0  0  0  0  0  0  0  0  0  0
    5.5935   -8.6419   17.4234 C   0  0  0  0  0  0  0  0  0  0  0  0
   13.0726   -4.6648   23.3394 O   0  0  0  0  0  0  0  0  0  0  0  0
    8.5955   -6.0705   17.3996 C   0  0  0  0  0  0  0  0  0  0  0  0
    4.6223   -8.3832   16.5030 C   0  0  0  0  0  0  0  0  0  0  0  0
   12.4690   -5.2624   19.9024 C   0  0  0  0  0  0  0  0  0  0  0  0
    3.2548   -9.9919   17.4189 C   0  0  0  0  0  0  0  0  0  0  0  0
   12.4767   -4.7393   22.1790 C   0  0  0  0  0  0  0  0  0  0  0  0
    7.8593   -5.3772   15.3569 N   0  0  0  0  0  0  0  0  0  0  0  0
    7.4412   -6.9038   16.9283 C   0  0  0  0  0  0  0  0  0  0  0  0
  1 21  4  0
  1 23  4  0
  2  5  1  0
  2 13  4  0
  2 16  4  0
  3  6  4  0
  3  7  4  0
  4 13  4  0
  4 19  4  0
  4 24  4  0
  6 23  4  0
  7 16  1  0
  7 21  4  0
  8 18  1  0
  9 20  4  0
  9 22  4  0
 10 17  1  0
 10 25  1  0
 11 16  4  0
 11 19  4  0
 12 15  4  0
 12 22  4  0
 14 24  4  0
 14 25  4  0
 15 17  4  0
 17 20  4  0
 18 23  1  0
 19 25  4  0
M  END
$$$$

 Created by Python create_sdf_string function

 25 28  0  0  0  0  0  0  0  0999 V2000
   13.1533   -5.2399   21.0682 C   0  0  0  0  0  0  0  0  0  0  0  0
   10.4729   -4.0295   17.6135 C   0  0  0  0  0  0  0  0  0  0  0  0
   10.4789   -4.3641   20.9564 C   0  0  0  0  0  0  0  0  0  0  0  0
    8.7421   -5.1412   16.3650 C   0  0  0  0  0  0  0  0  0  0  0  0
   11.4353   -2.9204   17.8044 C   0  0  0  0  0  0  0  0  0  0  0  0
   11.1529   -4.3028   22.1277 C   0  0  0  0  0  0  0  0  0  0  0  0
   11.1290   -4.8502   19.8052 C   0  0  0  0  0  0  0  0  0  0  0  0
   12.4329   -4.2159   24.4224 C   0  0  0  0  0  0  0  0  0  0  0  0
    3.4740   -9.0387   16.5022 C   0  0  0  0  0  0  0  0  0  0  0  0
    6.8384   -7.9290   17.5282 N   0  0  0  0  0  0  0  0  0  0  0  0
    9.4126   -5.9853   18.4899 C   0  0  0  0  0  0  0  0  0  0  0  0
    4.2064  -10.3242   18.3302 C   0  0  0  0  0  0  0  0  0  0  0  0
    9.6599   -4.1551   16.4796 N   0  0  0  0  0  0  0  0  0  0  0  0
    7.0644   -6.4612   15.7375 N   0  0  0  0  0  0  0  0  0  0  0  0
    5.3549   -9.6322   18.3190 C   0  0  0  0  0  0  0  0  0  0  0  0
   10.3704   -4.9638   18.6510 C   0  0  0  0  0  0  0  0  0  0  0  0
    5.5935   -8.6419   17.4234 C   0  0  0  0  0  0  0  0  0  0  0  0
   13.0726   -4.6648   23.3394 O   0  0  0  0  0  0  0  0  0  0  0  0
    8.5955   -6.0705   17.3996 C   0  0  0  0  0  0  0  0  0  0  0  0
    4.6223   -8.3832   16.5030 C   0  0  0  0  0  0  0  0  0  0  0  0
   12.4690   -5.2624   19.9024 C   0  0  0  0  0  0  0  0  0  0  0  0
    3.2548   -9.9919   17.4189 C   0  0  0  0  0  0  0  0  0  0  0  0
   12.4767   -4.7393   22.1790 C   0  0  0  0  0  0  0  0  0  0  0  0
    7.8593   -5.3772   15.3569 N   0  0  0  0  0  0  0  0  0  0  0  0
    7.4412   -6.9038   16.9283 C   0  0  0  0  0  0  0  0  0  0  0  0
  1 21  4  0
  1 23  4  0
  2  5  1  0
  2 13  4  0
  2 16  4  0
  3  6  4  0
  3  7  4  0
  4 13  4  0
  4 19  4  0
  4 24  4  0
  6 23  4  0
  7 16  1  0
  7 21  4  0
  8 18  1  0
  9 20  4  0
  9 22  4  0
 10 17  1  0
 10 25  1  0
 11 16  4  0
 11 19  4  0
 12 15  4  0
 12 22  4  0
 14 24  4  0
 14 25  4  0
 15 17  4  0
 17 20  4  0
 18 23  1  0
 19 25  4  0
M  END
$$$$

 Created by Python create_sdf_string function

 25 28  0  0  0  0  0  0  0  0999 V2000
   13.1533   -5.2399   21.0682 C   0  0  0  0  0  0  0  0  0  0  0  0
   10.4729   -4.0295   17.6135 C   0  0  0  0  0  0  0  0  0  0  0  0
   10.4789   -4.3641   20.9564 C   0  0  0  0  0  0  0  0  0  0  0  0
    8.7421   -5.1412   16.3650 C   0  0  0  0  0  0  0  0  0  0  0  0
   11.4353   -2.9204   17.8044 C   0  0  0  0  0  0  0  0  0  0  0  0
   11.1529   -4.3028   22.1277 C   0  0  0  0  0  0  0  0  0  0  0  0
   11.1290   -4.8502   19.8052 C   0  0  0  0  0  0  0  0  0  0  0  0
   12.4329   -4.2159   24.4224 C   0  0  0  0  0  0  0  0  0  0  0  0
    3.4740   -9.0387   16.5022 C   0  0  0  0  0  0  0  0  0  0  0  0
    6.8384   -7.9290   17.5282 N   0  0  0  0  0  0  0  0  0  0  0  0
    9.4126   -5.9853   18.4899 C   0  0  0  0  0  0  0  0  0  0  0  0
    4.2064  -10.3242   18.3302 C   0  0  0  0  0  0  0  0  0  0  0  0
    9.6599   -4.1551   16.4796 N   0  0  0  0  0  0  0  0  0  0  0  0
    7.0644   -6.4612   15.7375 N   0  0  0  0  0  0  0  0  0  0  0  0
    5.3549   -9.6322   18.3190 C   0  0  0  0  0  0  0  0  0  0  0  0
   10.3704   -4.9638   18.6510 C   0  0  0  0  0  0  0  0  0  0  0  0
    5.5935   -8.6419   17.4234 C   0  0  0  0  0  0  0  0  0  0  0  0
   13.0726   -4.6648   23.3394 O   0  0  0  0  0  0  0  0  0  0  0  0
    8.5955   -6.0705   17.3996 C   0  0  0  0  0  0  0  0  0  0  0  0
    4.6223   -8.3832   16.5030 C   0  0  0  0  0  0  0  0  0  0  0  0
   12.4690   -5.2624   19.9024 C   0  0  0  0  0  0  0  0  0  0  0  0
    3.2548   -9.9919   17.4189 C   0  0  0  0  0  0  0  0  0  0  0  0
   12.4767   -4.7393   22.1790 C   0  0  0  0  0  0  0  0  0  0  0  0
    7.8593   -5.3772   15.3569 N   0  0  0  0  0  0  0  0  0  0  0  0
    7.4412   -6.9038   16.9283 C   0  0  0  0  0  0  0  0  0  0  0  0
  1 21  4  0
  1 23  4  0
  2  5  1  0
  2 13  4  0
  2 16  4  0
  3  6  4  0
  3  7  4  0
  4 13  4  0
  4 19  4  0
  4 24  4  0
  6 23  4  0
  7 16  1  0
  7 21  4  0
  8 18  1  0
  9 20  4  0
  9 22  4  0
 10 17  1  0
 10 25  1  0
 11 16  4  0
 11 19  4  0
 12 15  4  0
 12 22  4  0
 14 24  4  0
 14 25  4  0
 15 17  4  0
 17 20  4  0
 18 23  1  0
 19 25  4  0
M  END
$$$$

 Created by Python create_sdf_string function

 25 28  0  0  0  0  0  0  0  0999 V2000
   13.1533   -5.2399   21.0682 C   0  0  0  0  0  0  0  0  0  0  0  0
   10.4729   -4.0295   17.6135 C   0  0  0  0  0  0  0  0  0  0  0  0
   10.4789   -4.3641   20.9564 C   0  0  0  0  0  0  0  0  0  0  0  0
    8.7421   -5.1412   16.3650 C   0  0  0  0  0  0  0  0  0  0  0  0
   11.4353   -2.9204   17.8044 C   0  0  0  0  0  0  0  0  0  0  0  0
   11.1529   -4.3028   22.1277 C   0  0  0  0  0  0  0  0  0  0  0  0
   11.1290   -4.8502   19.8052 C   0  0  0  0  0  0  0  0  0  0  0  0
   12.4329   -4.2159   24.4224 C   0  0  0  0  0  0  0  0  0  0  0  0
    3.4740   -9.0387   16.5022 C   0  0  0  0  0  0  0  0  0  0  0  0
    6.8384   -7.9290   17.5282 N   0  0  0  0  0  0  0  0  0  0  0  0
    9.4126   -5.9853   18.4899 C   0  0  0  0  0  0  0  0  0  0  0  0
    4.2064  -10.3242   18.3302 C   0  0  0  0  0  0  0  0  0  0  0  0
    9.6599   -4.1551   16.4796 N   0  0  0  0  0  0  0  0  0  0  0  0
    7.0644   -6.4612   15.7375 N   0  0  0  0  0  0  0  0  0  0  0  0
    5.3549   -9.6322   18.3190 C   0  0  0  0  0  0  0  0  0  0  0  0
   10.3704   -4.9638   18.6510 C   0  0  0  0  0  0  0  0  0  0  0  0
    5.5935   -8.6419   17.4234 C   0  0  0  0  0  0  0  0  0  0  0  0
   13.0726   -4.6648   23.3394 O   0  0  0  0  0  0  0  0  0  0  0  0
    8.5955   -6.0705   17.3996 C   0  0  0  0  0  0  0  0  0  0  0  0
    4.6223   -8.3832   16.5030 C   0  0  0  0  0  0  0  0  0  0  0  0
   12.4690   -5.2624   19.9024 C   0  0  0  0  0  0  0  0  0  0  0  0
    3.2548   -9.9919   17.4189 C   0  0  0  0  0  0  0  0  0  0  0  0
   12.4767   -4.7393   22.1790 C   0  0  0  0  0  0  0  0  0  0  0  0
    7.8593   -5.3772   15.3569 N   0  0  0  0  0  0  0  0  0  0  0  0
    7.4412   -6.9038   16.9283 C   0  0  0  0  0  0  0  0  0  0  0  0
  1 21  4  0
  1 23  4  0
  2  5  1  0
  2 13  4  0
  2 16  4  0
  3  6  4  0
  3  7  4  0
  4 13  4  0
  4 19  4  0
  4 24  4  0
  6 23  4  0
  7 16  1  0
  7 21  4  0
  8 18  1  0
  9 20  4  0
  9 22  4  0
 10 17  1  0
 10 25  1  0
 11 16  4  0
 11 19  4  0
 12 15  4  0
 12 22  4  0
 14 24  4  0
 14 25  4  0
 15 17  4  0
 17 20  4  0
 18 23  1  0
 19 25  4  0
M  END
$$$$

 Created by Python create_sdf_string function

 25 28  0  0  0  0  0  0  0  0999 V2000
   13.1533   -5.2399   21.0682 C   0  0  0  0  0  0  0  0  0  0  0  0
   10.4729   -4.0295   17.6135 C   0  0  0  0  0  0  0  0  0  0  0  0
   10.4789   -4.3641   20.9564 C   0  0  0  0  0  0  0  0  0  0  0  0
    8.7421   -5.1412   16.3650 C   0  0  0  0  0  0  0  0  0  0  0  0
   11.4353   -2.9204   17.8044 C   0  0  0  0  0  0  0  0  0  0  0  0
   11.1529   -4.3028   22.1277 C   0  0  0  0  0  0  0  0  0  0  0  0
   11.1290   -4.8502   19.8052 C   0  0  0  0  0  0  0  0  0  0  0  0
   12.4329   -4.2159   24.4224 C   0  0  0  0  0  0  0  0  0  0  0  0
    3.4740   -9.0387   16.5022 C   0  0  0  0  0  0  0  0  0  0  0  0
    6.8384   -7.9290   17.5282 N   0  0  0  0  0  0  0  0  0  0  0  0
    9.4126   -5.9853   18.4899 C   0  0  0  0  0  0  0  0  0  0  0  0
    4.2064  -10.3242   18.3302 C   0  0  0  0  0  0  0  0  0  0  0  0
    9.6599   -4.1551   16.4796 N   0  0  0  0  0  0  0  0  0  0  0  0
    7.0644   -6.4612   15.7375 N   0  0  0  0  0  0  0  0  0  0  0  0
    5.3549   -9.6322   18.3190 C   0  0  0  0  0  0  0  0  0  0  0  0
   10.3704   -4.9638   18.6510 C   0  0  0  0  0  0  0  0  0  0  0  0
    5.5935   -8.6419   17.4234 C   0  0  0  0  0  0  0  0  0  0  0  0
   13.0726   -4.6648   23.3394 O   0  0  0  0  0  0  0  0  0  0  0  0
    8.5955   -6.0705   17.3996 C   0  0  0  0  0  0  0  0  0  0  0  0
    4.6223   -8.3832   16.5030 C   0  0  0  0  0  0  0  0  0  0  0  0
   12.4690   -5.2624   19.9024 C   0  0  0  0  0  0  0  0  0  0  0  0
    3.2548   -9.9919   17.4189 C   0  0  0  0  0  0  0  0  0  0  0  0
   12.4767   -4.7393   22.1790 C   0  0  0  0  0  0  0  0  0  0  0  0
    7.8593   -5.3772   15.3569 N   0  0  0  0  0  0  0  0  0  0  0  0
    7.4412   -6.9038   16.9283 C   0  0  0  0  0  0  0  0  0  0  0  0
  1 21  4  0
  1 23  4  0
  2  5  1  0
  2 13  4  0
  2 16  4  0
  3  6  4  0
  3  7  4  0
  4 13  4  0
  4 19  4  0
  4 24  4  0
  6 23  4  0
  7 16  1  0
  7 21  4  0
  8 18  1  0
  9 20  4  0
  9 22  4  0
 10 17  1  0
 10 25  1  0
 11 16  4  0
 11 19  4  0
 12 15  4  0
 12 22  4  0
 14 24  4  0
 14 25  4  0
 15 17  4  0
 17 20  4  0
 18 23  1  0
 19 25  4  0
M  END
$$$$

 Created by Python create_sdf_string function

 25 28  0  0  0  0  0  0  0  0999 V2000
   13.1533   -5.2399   21.0682 C   0  0  0  0  0  0  0  0  0  0  0  0
   10.4729   -4.0295   17.6135 C   0  0  0  0  0  0  0  0  0  0  0  0
   10.4789   -4.3641   20.9564 C   0  0  0  0  0  0  0  0  0  0  0  0
    8.7421   -5.1412   16.3650 C   0  0  0  0  0  0  0  0  0  0  0  0
   11.4353   -2.9204   17.8044 C   0  0  0  0  0  0  0  0  0  0  0  0
   11.1529   -4.3028   22.1277 C   0  0  0  0  0  0  0  0  0  0  0  0
   11.1290   -4.8502   19.8052 C   0  0  0  0  0  0  0  0  0  0  0  0
   12.4329   -4.2159   24.4224 C   0  0  0  0  0  0  0  0  0  0  0  0
    3.4740   -9.0387   16.5022 C   0  0  0  0  0  0  0  0  0  0  0  0
    6.8384   -7.9290   17.5282 N   0  0  0  0  0  0  0  0  0  0  0  0
    9.4126   -5.9853   18.4899 C   0  0  0  0  0  0  0  0  0  0  0  0
    4.2064  -10.3242   18.3302 C   0  0  0  0  0  0  0  0  0  0  0  0
    9.6599   -4.1551   16.4796 N   0  0  0  0  0  0  0  0  0  0  0  0
    7.0644   -6.4612   15.7375 N   0  0  0  0  0  0  0  0  0  0  0  0
    5.3549   -9.6322   18.3190 C   0  0  0  0  0  0  0  0  0  0  0  0
   10.3704   -4.9638   18.6510 C   0  0  0  0  0  0  0  0  0  0  0  0
    5.5935   -8.6419   17.4234 C   0  0  0  0  0  0  0  0  0  0  0  0
   13.0726   -4.6648   23.3394 O   0  0  0  0  0  0  0  0  0  0  0  0
    8.5955   -6.0705   17.3996 C   0  0  0  0  0  0  0  0  0  0  0  0
    4.6223   -8.3832   16.5030 C   0  0  0  0  0  0  0  0  0  0  0  0
   12.4690   -5.2624   19.9024 C   0  0  0  0  0  0  0  0  0  0  0  0
    3.2548   -9.9919   17.4189 C   0  0  0  0  0  0  0  0  0  0  0  0
   12.4767   -4.7393   22.1790 C   0  0  0  0  0  0  0  0  0  0  0  0
    7.8593   -5.3772   15.3569 N   0  0  0  0  0  0  0  0  0  0  0  0
    7.4412   -6.9038   16.9283 C   0  0  0  0  0  0  0  0  0  0  0  0
  1 21  4  0
  1 23  4  0
  2  5  1  0
  2 13  4  0
  2 16  4  0
  3  6  4  0
  3  7  4  0
  4 13  4  0
  4 19  4  0
  4 24  4  0
  6 23  4  0
  7 16  1  0
  7 21  4  0
  8 18  1  0
  9 20  4  0
  9 22  4  0
 10 17  1  0
 10 25  1  0
 11 16  4  0
 11 19  4  0
 12 15  4  0
 12 22  4  0
 14 24  4  0
 14 25  4  0
 15 17  4  0
 17 20  4  0
 18 23  1  0
 19 25  4  0
M  END
$$$$

 Created by Python create_sdf_string function

 25 28  0  0  0  0  0  0  0  0999 V2000
   13.1533   -5.2399   21.0682 C   0  0  0  0  0  0  0  0  0  0  0  0
   10.4729   -4.0295   17.6135 C   0  0  0  0  0  0  0  0  0  0  0  0
   10.4789   -4.3641   20.9564 C   0  0  0  0  0  0  0  0  0  0  0  0
    8.7421   -5.1412   16.3650 C   0  0  0  0  0  0  0  0  0  0  0  0
   11.4353   -2.9204   17.8044 C   0  0  0  0  0  0  0  0  0  0  0  0
   11.1529   -4.3028   22.1277 C   0  0  0  0  0  0  0  0  0  0  0  0
   11.1290   -4.8502   19.8052 C   0  0  0  0  0  0  0  0  0  0  0  0
   12.4329   -4.2159   24.4224 C   0  0  0  0  0  0  0  0  0  0  0  0
    3.4740   -9.0387   16.5022 C   0  0  0  0  0  0  0  0  0  0  0  0
    6.8384   -7.9290   17.5282 N   0  0  0  0  0  0  0  0  0  0  0  0
    9.4126   -5.9853   18.4899 C   0  0  0  0  0  0  0  0  0  0  0  0
    4.2064  -10.3242   18.3302 C   0  0  0  0  0  0  0  0  0  0  0  0
    9.6599   -4.1551   16.4796 N   0  0  0  0  0  0  0  0  0  0  0  0
    7.0644   -6.4612   15.7375 N   0  0  0  0  0  0  0  0  0  0  0  0
    5.3549   -9.6322   18.3190 C   0  0  0  0  0  0  0  0  0  0  0  0
   10.3704   -4.9638   18.6510 C   0  0  0  0  0  0  0  0  0  0  0  0
    5.5935   -8.6419   17.4234 C   0  0  0  0  0  0  0  0  0  0  0  0
   13.0726   -4.6648   23.3394 O   0  0  0  0  0  0  0  0  0  0  0  0
    8.5955   -6.0705   17.3996 C   0  0  0  0  0  0  0  0  0  0  0  0
    4.6223   -8.3832   16.5030 C   0  0  0  0  0  0  0  0  0  0  0  0
   12.4690   -5.2624   19.9024 C   0  0  0  0  0  0  0  0  0  0  0  0
    3.2548   -9.9919   17.4189 C   0  0  0  0  0  0  0  0  0  0  0  0
   12.4767   -4.7393   22.1790 C   0  0  0  0  0  0  0  0  0  0  0  0
    7.8593   -5.3772   15.3569 N   0  0  0  0  0  0  0  0  0  0  0  0
    7.4412   -6.9038   16.9283 C   0  0  0  0  0  0  0  0  0  0  0  0
  1 21  4  0
  1 23  4  0
  2  5  1  0
  2 13  4  0
  2 16  4  0
  3  6  4  0
  3  7  4  0
  4 13  4  0
  4 19  4  0
  4 24  4  0
  6 23  4  0
  7 16  1  0
  7 21  4  0
  8 18  1  0
  9 20  4  0
  9 22  4  0
 10 17  1  0
 10 25  1  0
 11 16  4  0
 11 19  4  0
 12 15  4  0
 12 22  4  0
 14 24  4  0
 14 25  4  0
 15 17  4  0
 17 20  4  0
 18 23  1  0
 19 25  4  0
M  END
$$$$

 Created by Python create_sdf_string function

 25 28  0  0  0  0  0  0  0  0999 V2000
   13.1533   -5.2399   21.0682 C   0  0  0  0  0  0  0  0  0  0  0  0
   10.4729   -4.0295   17.6135 C   0  0  0  0  0  0  0  0  0  0  0  0
   10.4789   -4.3641   20.9564 C   0  0  0  0  0  0  0  0  0  0  0  0
    8.7421   -5.1412   16.3650 C   0  0  0  0  0  0  0  0  0  0  0  0
   11.4353   -2.9204   17.8044 C   0  0  0  0  0  0  0  0  0  0  0  0
   11.1529   -4.3028   22.1277 C   0  0  0  0  0  0  0  0  0  0  0  0
   11.1290   -4.8502   19.8052 C   0  0  0  0  0  0  0  0  0  0  0  0
   12.4329   -4.2159   24.4224 C   0  0  0  0  0  0  0  0  0  0  0  0
    3.4740   -9.0387   16.5022 C   0  0  0  0  0  0  0  0  0  0  0  0
    6.8384   -7.9290   17.5282 N   0  0  0  0  0  0  0  0  0  0  0  0
    9.4126   -5.9853   18.4899 C   0  0  0  0  0  0  0  0  0  0  0  0
    4.2064  -10.3242   18.3302 C   0  0  0  0  0  0  0  0  0  0  0  0
    9.6599   -4.1551   16.4796 N   0  0  0  0  0  0  0  0  0  0  0  0
    7.0644   -6.4612   15.7375 N   0  0  0  0  0  0  0  0  0  0  0  0
    5.3549   -9.6322   18.3190 C   0  0  0  0  0  0  0  0  0  0  0  0
   10.3704   -4.9638   18.6510 C   0  0  0  0  0  0  0  0  0  0  0  0
    5.5935   -8.6419   17.4234 C   0  0  0  0  0  0  0  0  0  0  0  0
   13.0726   -4.6648   23.3394 O   0  0  0  0  0  0  0  0  0  0  0  0
    8.5955   -6.0705   17.3996 C   0  0  0  0  0  0  0  0  0  0  0  0
    4.6223   -8.3832   16.5030 C   0  0  0  0  0  0  0  0  0  0  0  0
   12.4690   -5.2624   19.9024 C   0  0  0  0  0  0  0  0  0  0  0  0
    3.2548   -9.9919   17.4189 C   0  0  0  0  0  0  0  0  0  0  0  0
   12.4767   -4.7393   22.1790 C   0  0  0  0  0  0  0  0  0  0  0  0
    7.8593   -5.3772   15.3569 N   0  0  0  0  0  0  0  0  0  0  0  0
    7.4412   -6.9038   16.9283 C   0  0  0  0  0  0  0  0  0  0  0  0
  1 21  4  0
  1 23  4  0
  2  5  1  0
  2 13  4  0
  2 16  4  0
  3  6  4  0
  3  7  4  0
  4 13  4  0
  4 19  4  0
  4 24  4  0
  6 23  4  0
  7 16  1  0
  7 21  4  0
  8 18  1  0
  9 20  4  0
  9 22  4  0
 10 17  1  0
 10 25  1  0
 11 16  4  0
 11 19  4  0
 12 15  4  0
 12 22  4  0
 14 24  4  0
 14 25  4  0
 15 17  4  0
 17 20  4  0
 18 23  1  0
 19 25  4  0
M  END
$$$$

 Created by Python create_sdf_string function

 25 28  0  0  0  0  0  0  0  0999 V2000
   13.1533   -5.2399   21.0682 C   0  0  0  0  0  0  0  0  0  0  0  0
   10.4729   -4.0295   17.6135 C   0  0  0  0  0  0  0  0  0  0  0  0
   10.4789   -4.3641   20.9564 C   0  0  0  0  0  0  0  0  0  0  0  0
    8.7421   -5.1412   16.3650 C   0  0  0  0  0  0  0  0  0  0  0  0
   11.4353   -2.9204   17.8044 C   0  0  0  0  0  0  0  0  0  0  0  0
   11.1529   -4.3028   22.1277 C   0  0  0  0  0  0  0  0  0  0  0  0
   11.1290   -4.8502   19.8052 C   0  0  0  0  0  0  0  0  0  0  0  0
   12.4329   -4.2159   24.4224 C   0  0  0  0  0  0  0  0  0  0  0  0
    3.4740   -9.0387   16.5022 C   0  0  0  0  0  0  0  0  0  0  0  0
    6.8384   -7.9290   17.5282 N   0  0  0  0  0  0  0  0  0  0  0  0
    9.4126   -5.9853   18.4899 C   0  0  0  0  0  0  0  0  0  0  0  0
    4.2064  -10.3242   18.3302 C   0  0  0  0  0  0  0  0  0  0  0  0
    9.6599   -4.1551   16.4796 N   0  0  0  0  0  0  0  0  0  0  0  0
    7.0644   -6.4612   15.7375 N   0  0  0  0  0  0  0  0  0  0  0  0
    5.3549   -9.6322   18.3190 C   0  0  0  0  0  0  0  0  0  0  0  0
   10.3704   -4.9638   18.6510 C   0  0  0  0  0  0  0  0  0  0  0  0
    5.5935   -8.6419   17.4234 C   0  0  0  0  0  0  0  0  0  0  0  0
   13.0726   -4.6648   23.3394 O   0  0  0  0  0  0  0  0  0  0  0  0
    8.5955   -6.0705   17.3996 C   0  0  0  0  0  0  0  0  0  0  0  0
    4.6223   -8.3832   16.5030 C   0  0  0  0  0  0  0  0  0  0  0  0
   12.4690   -5.2624   19.9024 C   0  0  0  0  0  0  0  0  0  0  0  0
    3.2548   -9.9919   17.4189 C   0  0  0  0  0  0  0  0  0  0  0  0
   12.4767   -4.7393   22.1790 C   0  0  0  0  0  0  0  0  0  0  0  0
    7.8593   -5.3772   15.3569 N   0  0  0  0  0  0  0  0  0  0  0  0
    7.4412   -6.9038   16.9283 C   0  0  0  0  0  0  0  0  0  0  0  0
  1 21  4  0
  1 23  4  0
  2  5  1  0
  2 13  4  0
  2 16  4  0
  3  6  4  0
  3  7  4  0
  4 13  4  0
  4 19  4  0
  4 24  4  0
  6 23  4  0
  7 16  1  0
  7 21  4  0
  8 18  1  0
  9 20  4  0
  9 22  4  0
 10 17  1  0
 10 25  1  0
 11 16  4  0
 11 19  4  0
 12 15  4  0
 12 22  4  0
 14 24  4  0
 14 25  4  0
 15 17  4  0
 17 20  4  0
 18 23  1  0
 19 25  4  0
M  END
$$$$

 Created by Python create_sdf_string function

 25 28  0  0  0  0  0  0  0  0999 V2000
   13.1533   -5.2399   21.0682 C   0  0  0  0  0  0  0  0  0  0  0  0
   10.4729   -4.0295   17.6135 C   0  0  0  0  0  0  0  0  0  0  0  0
   10.4789   -4.3641   20.9564 C   0  0  0  0  0  0  0  0  0  0  0  0
    8.7421   -5.1412   16.3650 C   0  0  0  0  0  0  0  0  0  0  0  0
   11.4353   -2.9204   17.8044 C   0  0  0  0  0  0  0  0  0  0  0  0
   11.1529   -4.3028   22.1277 C   0  0  0  0  0  0  0  0  0  0  0  0
   11.1290   -4.8502   19.8052 C   0  0  0  0  0  0  0  0  0  0  0  0
   12.4329   -4.2159   24.4224 C   0  0  0  0  0  0  0  0  0  0  0  0
    3.4740   -9.0387   16.5022 C   0  0  0  0  0  0  0  0  0  0  0  0
    6.8384   -7.9290   17.5282 N   0  0  0  0  0  0  0  0  0  0  0  0
    9.4126   -5.9853   18.4899 C   0  0  0  0  0  0  0  0  0  0  0  0
    4.2064  -10.3242   18.3302 C   0  0  0  0  0  0  0  0  0  0  0  0
    9.6599   -4.1551   16.4796 N   0  0  0  0  0  0  0  0  0  0  0  0
    7.0644   -6.4612   15.7375 N   0  0  0  0  0  0  0  0  0  0  0  0
    5.3549   -9.6322   18.3190 C   0  0  0  0  0  0  0  0  0  0  0  0
   10.3704   -4.9638   18.6510 C   0  0  0  0  0  0  0  0  0  0  0  0
    5.5935   -8.6419   17.4234 C   0  0  0  0  0  0  0  0  0  0  0  0
   13.0726   -4.6648   23.3394 O   0  0  0  0  0  0  0  0  0  0  0  0
    8.5955   -6.0705   17.3996 C   0  0  0  0  0  0  0  0  0  0  0  0
    4.6223   -8.3832   16.5030 C   0  0  0  0  0  0  0  0  0  0  0  0
   12.4690   -5.2624   19.9024 C   0  0  0  0  0  0  0  0  0  0  0  0
    3.2548   -9.9919   17.4189 C   0  0  0  0  0  0  0  0  0  0  0  0
   12.4767   -4.7393   22.1790 C   0  0  0  0  0  0  0  0  0  0  0  0
    7.8593   -5.3772   15.3569 N   0  0  0  0  0  0  0  0  0  0  0  0
    7.4412   -6.9038   16.9283 C   0  0  0  0  0  0  0  0  0  0  0  0
  1 21  4  0
  1 23  4  0
  2  5  1  0
  2 13  4  0
  2 16  4  0
  3  6  4  0
  3  7  4  0
  4 13  4  0
  4 19  4  0
  4 24  4  0
  6 23  4  0
  7 16  1  0
  7 21  4  0
  8 18  1  0
  9 20  4  0
  9 22  4  0
 10 17  1  0
 10 25  1  0
 11 16  4  0
 11 19  4  0
 12 15  4  0
 12 22  4  0
 14 24  4  0
 14 25  4  0
 15 17  4  0
 17 20  4  0
 18 23  1  0
 19 25  4  0
M  END
$$$$

 Created by Python create_sdf_string function

 25 28  0  0  0  0  0  0  0  0999 V2000
   13.1533   -5.2399   21.0682 C   0  0  0  0  0  0  0  0  0  0  0  0
   10.4729   -4.0295   17.6135 C   0  0  0  0  0  0  0  0  0  0  0  0
   10.4789   -4.3641   20.9564 C   0  0  0  0  0  0  0  0  0  0  0  0
    8.7421   -5.1412   16.3650 C   0  0  0  0  0  0  0  0  0  0  0  0
   11.4353   -2.9204   17.8044 C   0  0  0  0  0  0  0  0  0  0  0  0
   11.1529   -4.3028   22.1277 C   0  0  0  0  0  0  0  0  0  0  0  0
   11.1290   -4.8502   19.8052 C   0  0  0  0  0  0  0  0  0  0  0  0
   12.4329   -4.2159   24.4224 C   0  0  0  0  0  0  0  0  0  0  0  0
    3.4740   -9.0387   16.5022 C   0  0  0  0  0  0  0  0  0  0  0  0
    6.8384   -7.9290   17.5282 N   0  0  0  0  0  0  0  0  0  0  0  0
    9.4126   -5.9853   18.4899 C   0  0  0  0  0  0  0  0  0  0  0  0
    4.2064  -10.3242   18.3302 C   0  0  0  0  0  0  0  0  0  0  0  0
    9.6599   -4.1551   16.4796 N   0  0  0  0  0  0  0  0  0  0  0  0
    7.0644   -6.4612   15.7375 N   0  0  0  0  0  0  0  0  0  0  0  0
    5.3549   -9.6322   18.3190 C   0  0  0  0  0  0  0  0  0  0  0  0
   10.3704   -4.9638   18.6510 C   0  0  0  0  0  0  0  0  0  0  0  0
    5.5935   -8.6419   17.4234 C   0  0  0  0  0  0  0  0  0  0  0  0
   13.0726   -4.6648   23.3394 O   0  0  0  0  0  0  0  0  0  0  0  0
    8.5955   -6.0705   17.3996 C   0  0  0  0  0  0  0  0  0  0  0  0
    4.6223   -8.3832   16.5030 C   0  0  0  0  0  0  0  0  0  0  0  0
   12.4690   -5.2624   19.9024 C   0  0  0  0  0  0  0  0  0  0  0  0
    3.2548   -9.9919   17.4189 C   0  0  0  0  0  0  0  0  0  0  0  0
   12.4767   -4.7393   22.1790 C   0  0  0  0  0  0  0  0  0  0  0  0
    7.8593   -5.3772   15.3569 N   0  0  0  0  0  0  0  0  0  0  0  0
    7.4412   -6.9038   16.9283 C   0  0  0  0  0  0  0  0  0  0  0  0
  1 21  4  0
  1 23  4  0
  2  5  1  0
  2 13  4  0
  2 16  4  0
  3  6  4  0
  3  7  4  0
  4 13  4  0
  4 19  4  0
  4 24  4  0
  6 23  4  0
  7 16  1  0
  7 21  4  0
  8 18  1  0
  9 20  4  0
  9 22  4  0
 10 17  1  0
 10 25  1  0
 11 16  4  0
 11 19  4  0
 12 15  4  0
 12 22  4  0
 14 24  4  0
 14 25  4  0
 15 17  4  0
 17 20  4  0
 18 23  1  0
 19 25  4  0
M  END
$$$$

 Created by Python create_sdf_string function

 25 28  0  0  0  0  0  0  0  0999 V2000
   13.1533   -5.2399   21.0682 C   0  0  0  0  0  0  0  0  0  0  0  0
   10.4729   -4.0295   17.6135 C   0  0  0  0  0  0  0  0  0  0  0  0
   10.4789   -4.3641   20.9564 C   0  0  0  0  0  0  0  0  0  0  0  0
    8.7421   -5.1412   16.3650 C   0  0  0  0  0  0  0  0  0  0  0  0
   11.4353   -2.9204   17.8044 C   0  0  0  0  0  0  0  0  0  0  0  0
   11.1529   -4.3028   22.1277 C   0  0  0  0  0  0  0  0  0  0  0  0
   11.1290   -4.8502   19.8052 C   0  0  0  0  0  0  0  0  0  0  0  0
   12.4329   -4.2159   24.4224 C   0  0  0  0  0  0  0  0  0  0  0  0
    3.4740   -9.0387   16.5022 C   0  0  0  0  0  0  0  0  0  0  0  0
    6.8384   -7.9290   17.5282 N   0  0  0  0  0  0  0  0  0  0  0  0
    9.4126   -5.9853   18.4899 C   0  0  0  0  0  0  0  0  0  0  0  0
    4.2064  -10.3242   18.3302 C   0  0  0  0  0  0  0  0  0  0  0  0
    9.6599   -4.1551   16.4796 N   0  0  0  0  0  0  0  0  0  0  0  0
    7.0644   -6.4612   15.7375 N   0  0  0  0  0  0  0  0  0  0  0  0
    5.3549   -9.6322   18.3190 C   0  0  0  0  0  0  0  0  0  0  0  0
   10.3704   -4.9638   18.6510 C   0  0  0  0  0  0  0  0  0  0  0  0
    5.5935   -8.6419   17.4234 C   0  0  0  0  0  0  0  0  0  0  0  0
   13.0726   -4.6648   23.3394 O   0  0  0  0  0  0  0  0  0  0  0  0
    8.5955   -6.0705   17.3996 C   0  0  0  0  0  0  0  0  0  0  0  0
    4.6223   -8.3832   16.5030 C   0  0  0  0  0  0  0  0  0  0  0  0
   12.4690   -5.2624   19.9024 C   0  0  0  0  0  0  0  0  0  0  0  0
    3.2548   -9.9919   17.4189 C   0  0  0  0  0  0  0  0  0  0  0  0
   12.4767   -4.7393   22.1790 C   0  0  0  0  0  0  0  0  0  0  0  0
    7.8593   -5.3772   15.3569 N   0  0  0  0  0  0  0  0  0  0  0  0
    7.4412   -6.9038   16.9283 C   0  0  0  0  0  0  0  0  0  0  0  0
  1 21  4  0
  1 23  4  0
  2  5  1  0
  2 13  4  0
  2 16  4  0
  3  6  4  0
  3  7  4  0
  4 13  4  0
  4 19  4  0
  4 24  4  0
  6 23  4  0
  7 16  1  0
  7 21  4  0
  8 18  1  0
  9 20  4  0
  9 22  4  0
 10 17  1  0
 10 25  1  0
 11 16  4  0
 11 19  4  0
 12 15  4  0
 12 22  4  0
 14 24  4  0
 14 25  4  0
 15 17  4  0
 17 20  4  0
 18 23  1  0
 19 25  4  0
M  END
$$$$

 Created by Python create_sdf_string function

 25 28  0  0  0  0  0  0  0  0999 V2000
   13.1533   -5.2399   21.0682 C   0  0  0  0  0  0  0  0  0  0  0  0
   10.4729   -4.0295   17.6135 C   0  0  0  0  0  0  0  0  0  0  0  0
   10.4789   -4.3641   20.9564 C   0  0  0  0  0  0  0  0  0  0  0  0
    8.7421   -5.1412   16.3650 C   0  0  0  0  0  0  0  0  0  0  0  0
   11.4353   -2.9204   17.8044 C   0  0  0  0  0  0  0  0  0  0  0  0
   11.1529   -4.3028   22.1277 C   0  0  0  0  0  0  0  0  0  0  0  0
   11.1290   -4.8502   19.8052 C   0  0  0  0  0  0  0  0  0  0  0  0
   12.4329   -4.2159   24.4224 C   0  0  0  0  0  0  0  0  0  0  0  0
    3.4740   -9.0387   16.5022 C   0  0  0  0  0  0  0  0  0  0  0  0
    6.8384   -7.9290   17.5282 N   0  0  0  0  0  0  0  0  0  0  0  0
    9.4126   -5.9853   18.4899 C   0  0  0  0  0  0  0  0  0  0  0  0
    4.2064  -10.3242   18.3302 C   0  0  0  0  0  0  0  0  0  0  0  0
    9.6599   -4.1551   16.4796 N   0  0  0  0  0  0  0  0  0  0  0  0
    7.0644   -6.4612   15.7375 N   0  0  0  0  0  0  0  0  0  0  0  0
    5.3549   -9.6322   18.3190 C   0  0  0  0  0  0  0  0  0  0  0  0
   10.3704   -4.9638   18.6510 C   0  0  0  0  0  0  0  0  0  0  0  0
    5.5935   -8.6419   17.4234 C   0  0  0  0  0  0  0  0  0  0  0  0
   13.0726   -4.6648   23.3394 O   0  0  0  0  0  0  0  0  0  0  0  0
    8.5955   -6.0705   17.3996 C   0  0  0  0  0  0  0  0  0  0  0  0
    4.6223   -8.3832   16.5030 C   0  0  0  0  0  0  0  0  0  0  0  0
   12.4690   -5.2624   19.9024 C   0  0  0  0  0  0  0  0  0  0  0  0
    3.2548   -9.9919   17.4189 C   0  0  0  0  0  0  0  0  0  0  0  0
   12.4767   -4.7393   22.1790 C   0  0  0  0  0  0  0  0  0  0  0  0
    7.8593   -5.3772   15.3569 N   0  0  0  0  0  0  0  0  0  0  0  0
    7.4412   -6.9038   16.9283 C   0  0  0  0  0  0  0  0  0  0  0  0
  1 21  4  0
  1 23  4  0
  2  5  1  0
  2 13  4  0
  2 16  4  0
  3  6  4  0
  3  7  4  0
  4 13  4  0
  4 19  4  0
  4 24  4  0
  6 23  4  0
  7 16  1  0
  7 21  4  0
  8 18  1  0
  9 20  4  0
  9 22  4  0
 10 17  1  0
 10 25  1  0
 11 16  4  0
 11 19  4  0
 12 15  4  0
 12 22  4  0
 14 24  4  0
 14 25  4  0
 15 17  4  0
 17 20  4  0
 18 23  1  0
 19 25  4  0
M  END
$$$$

 Created by Python create_sdf_string function

 25 28  0  0  0  0  0  0  0  0999 V2000
   13.1533   -5.2399   21.0682 C   0  0  0  0  0  0  0  0  0  0  0  0
   10.4729   -4.0295   17.6135 C   0  0  0  0  0  0  0  0  0  0  0  0
   10.4789   -4.3641   20.9564 C   0  0  0  0  0  0  0  0  0  0  0  0
    8.7421   -5.1412   16.3650 C   0  0  0  0  0  0  0  0  0  0  0  0
   11.4353   -2.9204   17.8044 C   0  0  0  0  0  0  0  0  0  0  0  0
   11.1529   -4.3028   22.1277 C   0  0  0  0  0  0  0  0  0  0  0  0
   11.1290   -4.8502   19.8052 C   0  0  0  0  0  0  0  0  0  0  0  0
   12.4329   -4.2159   24.4224 C   0  0  0  0  0  0  0  0  0  0  0  0
    3.4740   -9.0387   16.5022 C   0  0  0  0  0  0  0  0  0  0  0  0
    6.8384   -7.9290   17.5282 N   0  0  0  0  0  0  0  0  0  0  0  0
    9.4126   -5.9853   18.4899 C   0  0  0  0  0  0  0  0  0  0  0  0
    4.2064  -10.3242   18.3302 C   0  0  0  0  0  0  0  0  0  0  0  0
    9.6599   -4.1551   16.4796 N   0  0  0  0  0  0  0  0  0  0  0  0
    7.0644   -6.4612   15.7375 N   0  0  0  0  0  0  0  0  0  0  0  0
    5.3549   -9.6322   18.3190 C   0  0  0  0  0  0  0  0  0  0  0  0
   10.3704   -4.9638   18.6510 C   0  0  0  0  0  0  0  0  0  0  0  0
    5.5935   -8.6419   17.4234 C   0  0  0  0  0  0  0  0  0  0  0  0
   13.0726   -4.6648   23.3394 O   0  0  0  0  0  0  0  0  0  0  0  0
    8.5955   -6.0705   17.3996 C   0  0  0  0  0  0  0  0  0  0  0  0
    4.6223   -8.3832   16.5030 C   0  0  0  0  0  0  0  0  0  0  0  0
   12.4690   -5.2624   19.9024 C   0  0  0  0  0  0  0  0  0  0  0  0
    3.2548   -9.9919   17.4189 C   0  0  0  0  0  0  0  0  0  0  0  0
   12.4767   -4.7393   22.1790 C   0  0  0  0  0  0  0  0  0  0  0  0
    7.8593   -5.3772   15.3569 N   0  0  0  0  0  0  0  0  0  0  0  0
    7.4412   -6.9038   16.9283 C   0  0  0  0  0  0  0  0  0  0  0  0
  1 21  4  0
  1 23  4  0
  2  5  1  0
  2 13  4  0
  2 16  4  0
  3  6  4  0
  3  7  4  0
  4 13  4  0
  4 19  4  0
  4 24  4  0
  6 23  4  0
  7 16  1  0
  7 21  4  0
  8 18  1  0
  9 20  4  0
  9 22  4  0
 10 17  1  0
 10 25  1  0
 11 16  4  0
 11 19  4  0
 12 15  4  0
 12 22  4  0
 14 24  4  0
 14 25  4  0
 15 17  4  0
 17 20  4  0
 18 23  1  0
 19 25  4  0
M  END
$$$$

 Created by Python create_sdf_string function

 25 28  0  0  0  0  0  0  0  0999 V2000
   13.1533   -5.2399   21.0682 C   0  0  0  0  0  0  0  0  0  0  0  0
   10.4729   -4.0295   17.6135 C   0  0  0  0  0  0  0  0  0  0  0  0
   10.4789   -4.3641   20.9564 C   0  0  0  0  0  0  0  0  0  0  0  0
    8.7421   -5.1412   16.3650 C   0  0  0  0  0  0  0  0  0  0  0  0
   11.4353   -2.9204   17.8044 C   0  0  0  0  0  0  0  0  0  0  0  0
   11.1529   -4.3028   22.1277 C   0  0  0  0  0  0  0  0  0  0  0  0
   11.1290   -4.8502   19.8052 C   0  0  0  0  0  0  0  0  0  0  0  0
   12.4329   -4.2159   24.4224 C   0  0  0  0  0  0  0  0  0  0  0  0
    3.4740   -9.0387   16.5022 C   0  0  0  0  0  0  0  0  0  0  0  0
    6.8384   -7.9290   17.5282 N   0  0  0  0  0  0  0  0  0  0  0  0
    9.4126   -5.9853   18.4899 C   0  0  0  0  0  0  0  0  0  0  0  0
    4.2064  -10.3242   18.3302 C   0  0  0  0  0  0  0  0  0  0  0  0
    9.6599   -4.1551   16.4796 N   0  0  0  0  0  0  0  0  0  0  0  0
    7.0644   -6.4612   15.7375 N   0  0  0  0  0  0  0  0  0  0  0  0
    5.3549   -9.6322   18.3190 C   0  0  0  0  0  0  0  0  0  0  0  0
   10.3704   -4.9638   18.6510 C   0  0  0  0  0  0  0  0  0  0  0  0
    5.5935   -8.6419   17.4234 C   0  0  0  0  0  0  0  0  0  0  0  0
   13.0726   -4.6648   23.3394 O   0  0  0  0  0  0  0  0  0  0  0  0
    8.5955   -6.0705   17.3996 C   0  0  0  0  0  0  0  0  0  0  0  0
    4.6223   -8.3832   16.5030 C   0  0  0  0  0  0  0  0  0  0  0  0
   12.4690   -5.2624   19.9024 C   0  0  0  0  0  0  0  0  0  0  0  0
    3.2548   -9.9919   17.4189 C   0  0  0  0  0  0  0  0  0  0  0  0
   12.4767   -4.7393   22.1790 C   0  0  0  0  0  0  0  0  0  0  0  0
    7.8593   -5.3772   15.3569 N   0  0  0  0  0  0  0  0  0  0  0  0
    7.4412   -6.9038   16.9283 C   0  0  0  0  0  0  0  0  0  0  0  0
  1 21  4  0
  1 23  4  0
  2  5  1  0
  2 13  4  0
  2 16  4  0
  3  6  4  0
  3  7  4  0
  4 13  4  0
  4 19  4  0
  4 24  4  0
  6 23  4  0
  7 16  1  0
  7 21  4  0
  8 18  1  0
  9 20  4  0
  9 22  4  0
 10 17  1  0
 10 25  1  0
 11 16  4  0
 11 19  4  0
 12 15  4  0
 12 22  4  0
 14 24  4  0
 14 25  4  0
 15 17  4  0
 17 20  4  0
 18 23  1  0
 19 25  4  0
M  END
$$$$

 Created by Python create_sdf_string function

 25 28  0  0  0  0  0  0  0  0999 V2000
   13.1533   -5.2399   21.0682 C   0  0  0  0  0  0  0  0  0  0  0  0
   10.4729   -4.0295   17.6135 C   0  0  0  0  0  0  0  0  0  0  0  0
   10.4789   -4.3641   20.9564 C   0  0  0  0  0  0  0  0  0  0  0  0
    8.7421   -5.1412   16.3650 C   0  0  0  0  0  0  0  0  0  0  0  0
   11.4353   -2.9204   17.8044 C   0  0  0  0  0  0  0  0  0  0  0  0
   11.1529   -4.3028   22.1277 C   0  0  0  0  0  0  0  0  0  0  0  0
   11.1290   -4.8502   19.8052 C   0  0  0  0  0  0  0  0  0  0  0  0
   12.4329   -4.2159   24.4224 C   0  0  0  0  0  0  0  0  0  0  0  0
    3.4740   -9.0387   16.5022 C   0  0  0  0  0  0  0  0  0  0  0  0
    6.8384   -7.9290   17.5282 N   0  0  0  0  0  0  0  0  0  0  0  0
    9.4126   -5.9853   18.4899 C   0  0  0  0  0  0  0  0  0  0  0  0
    4.2064  -10.3242   18.3302 C   0  0  0  0  0  0  0  0  0  0  0  0
    9.6599   -4.1551   16.4796 N   0  0  0  0  0  0  0  0  0  0  0  0
    7.0644   -6.4612   15.7375 N   0  0  0  0  0  0  0  0  0  0  0  0
    5.3549   -9.6322   18.3190 C   0  0  0  0  0  0  0  0  0  0  0  0
   10.3704   -4.9638   18.6510 C   0  0  0  0  0  0  0  0  0  0  0  0
    5.5935   -8.6419   17.4234 C   0  0  0  0  0  0  0  0  0  0  0  0
   13.0726   -4.6648   23.3394 O   0  0  0  0  0  0  0  0  0  0  0  0
    8.5955   -6.0705   17.3996 C   0  0  0  0  0  0  0  0  0  0  0  0
    4.6223   -8.3832   16.5030 C   0  0  0  0  0  0  0  0  0  0  0  0
   12.4690   -5.2624   19.9024 C   0  0  0  0  0  0  0  0  0  0  0  0
    3.2548   -9.9919   17.4189 C   0  0  0  0  0  0  0  0  0  0  0  0
   12.4767   -4.7393   22.1790 C   0  0  0  0  0  0  0  0  0  0  0  0
    7.8593   -5.3772   15.3569 N   0  0  0  0  0  0  0  0  0  0  0  0
    7.4412   -6.9038   16.9283 C   0  0  0  0  0  0  0  0  0  0  0  0
  1 21  4  0
  1 23  4  0
  2  5  1  0
  2 13  4  0
  2 16  4  0
  3  6  4  0
  3  7  4  0
  4 13  4  0
  4 19  4  0
  4 24  4  0
  6 23  4  0
  7 16  1  0
  7 21  4  0
  8 18  1  0
  9 20  4  0
  9 22  4  0
 10 17  1  0
 10 25  1  0
 11 16  4  0
 11 19  4  0
 12 15  4  0
 12 22  4  0
 14 24  4  0
 14 25  4  0
 15 17  4  0
 17 20  4  0
 18 23  1  0
 19 25  4  0
M  END
$$$$

 Created by Python create_sdf_string function

 25 28  0  0  0  0  0  0  0  0999 V2000
   13.1533   -5.2399   21.0682 C   0  0  0  0  0  0  0  0  0  0  0  0
   10.4729   -4.0295   17.6135 C   0  0  0  0  0  0  0  0  0  0  0  0
   10.4789   -4.3641   20.9564 C   0  0  0  0  0  0  0  0  0  0  0  0
    8.7421   -5.1412   16.3650 C   0  0  0  0  0  0  0  0  0  0  0  0
   11.4353   -2.9204   17.8044 C   0  0  0  0  0  0  0  0  0  0  0  0
   11.1529   -4.3028   22.1277 C   0  0  0  0  0  0  0  0  0  0  0  0
   11.1290   -4.8502   19.8052 C   0  0  0  0  0  0  0  0  0  0  0  0
   12.4329   -4.2159   24.4224 C   0  0  0  0  0  0  0  0  0  0  0  0
    3.4740   -9.0387   16.5022 C   0  0  0  0  0  0  0  0  0  0  0  0
    6.8384   -7.9290   17.5282 N   0  0  0  0  0  0  0  0  0  0  0  0
    9.4126   -5.9853   18.4899 C   0  0  0  0  0  0  0  0  0  0  0  0
    4.2064  -10.3242   18.3302 C   0  0  0  0  0  0  0  0  0  0  0  0
    9.6599   -4.1551   16.4796 N   0  0  0  0  0  0  0  0  0  0  0  0
    7.0644   -6.4612   15.7375 N   0  0  0  0  0  0  0  0  0  0  0  0
    5.3549   -9.6322   18.3190 C   0  0  0  0  0  0  0  0  0  0  0  0
   10.3704   -4.9638   18.6510 C   0  0  0  0  0  0  0  0  0  0  0  0
    5.5935   -8.6419   17.4234 C   0  0  0  0  0  0  0  0  0  0  0  0
   13.0726   -4.6648   23.3394 O   0  0  0  0  0  0  0  0  0  0  0  0
    8.5955   -6.0705   17.3996 C   0  0  0  0  0  0  0  0  0  0  0  0
    4.6223   -8.3832   16.5030 C   0  0  0  0  0  0  0  0  0  0  0  0
   12.4690   -5.2624   19.9024 C   0  0  0  0  0  0  0  0  0  0  0  0
    3.2548   -9.9919   17.4189 C   0  0  0  0  0  0  0  0  0  0  0  0
   12.4767   -4.7393   22.1790 C   0  0  0  0  0  0  0  0  0  0  0  0
    7.8593   -5.3772   15.3569 N   0  0  0  0  0  0  0  0  0  0  0  0
    7.4412   -6.9038   16.9283 C   0  0  0  0  0  0  0  0  0  0  0  0
  1 21  4  0
  1 23  4  0
  2  5  1  0
  2 13  4  0
  2 16  4  0
  3  6  4  0
  3  7  4  0
  4 13  4  0
  4 19  4  0
  4 24  4  0
  6 23  4  0
  7 16  1  0
  7 21  4  0
  8 18  1  0
  9 20  4  0
  9 22  4  0
 10 17  1  0
 10 25  1  0
 11 16  4  0
 11 19  4  0
 12 15  4  0
 12 22  4  0
 14 24  4  0
 14 25  4  0
 15 17  4  0
 17 20  4  0
 18 23  1  0
 19 25  4  0
M  END
$$$$

 Created by Python create_sdf_string function

 25 28  0  0  0  0  0  0  0  0999 V2000
   13.1533   -5.2399   21.0682 C   0  0  0  0  0  0  0  0  0  0  0  0
   10.4729   -4.0295   17.6135 C   0  0  0  0  0  0  0  0  0  0  0  0
   10.4789   -4.3641   20.9564 C   0  0  0  0  0  0  0  0  0  0  0  0
    8.7421   -5.1412   16.3650 C   0  0  0  0  0  0  0  0  0  0  0  0
   11.4353   -2.9204   17.8044 C   0  0  0  0  0  0  0  0  0  0  0  0
   11.1529   -4.3028   22.1277 C   0  0  0  0  0  0  0  0  0  0  0  0
   11.1290   -4.8502   19.8052 C   0  0  0  0  0  0  0  0  0  0  0  0
   12.4329   -4.2159   24.4224 C   0  0  0  0  0  0  0  0  0  0  0  0
    3.4740   -9.0387   16.5022 C   0  0  0  0  0  0  0  0  0  0  0  0
    6.8384   -7.9290   17.5282 N   0  0  0  0  0  0  0  0  0  0  0  0
    9.4126   -5.9853   18.4899 C   0  0  0  0  0  0  0  0  0  0  0  0
    4.2064  -10.3242   18.3302 C   0  0  0  0  0  0  0  0  0  0  0  0
    9.6599   -4.1551   16.4796 N   0  0  0  0  0  0  0  0  0  0  0  0
    7.0644   -6.4612   15.7375 N   0  0  0  0  0  0  0  0  0  0  0  0
    5.3549   -9.6322   18.3190 C   0  0  0  0  0  0  0  0  0  0  0  0
   10.3704   -4.9638   18.6510 C   0  0  0  0  0  0  0  0  0  0  0  0
    5.5935   -8.6419   17.4234 C   0  0  0  0  0  0  0  0  0  0  0  0
   13.0726   -4.6648   23.3394 O   0  0  0  0  0  0  0  0  0  0  0  0
    8.5955   -6.0705   17.3996 C   0  0  0  0  0  0  0  0  0  0  0  0
    4.6223   -8.3832   16.5030 C   0  0  0  0  0  0  0  0  0  0  0  0
   12.4690   -5.2624   19.9024 C   0  0  0  0  0  0  0  0  0  0  0  0
    3.2548   -9.9919   17.4189 C   0  0  0  0  0  0  0  0  0  0  0  0
   12.4767   -4.7393   22.1790 C   0  0  0  0  0  0  0  0  0  0  0  0
    7.8593   -5.3772   15.3569 N   0  0  0  0  0  0  0  0  0  0  0  0
    7.4412   -6.9038   16.9283 C   0  0  0  0  0  0  0  0  0  0  0  0
  1 21  4  0
  1 23  4  0
  2  5  1  0
  2 13  4  0
  2 16  4  0
  3  6  4  0
  3  7  4  0
  4 13  4  0
  4 19  4  0
  4 24  4  0
  6 23  4  0
  7 16  1  0
  7 21  4  0
  8 18  1  0
  9 20  4  0
  9 22  4  0
 10 17  1  0
 10 25  1  0
 11 16  4  0
 11 19  4  0
 12 15  4  0
 12 22  4  0
 14 24  4  0
 14 25  4  0
 15 17  4  0
 17 20  4  0
 18 23  1  0
 19 25  4  0
M  END
$$$$

 Created by Python create_sdf_string function

 25 28  0  0  0  0  0  0  0  0999 V2000
   13.1533   -5.2399   21.0682 C   0  0  0  0  0  0  0  0  0  0  0  0
   10.4729   -4.0295   17.6135 C   0  0  0  0  0  0  0  0  0  0  0  0
   10.4789   -4.3641   20.9564 C   0  0  0  0  0  0  0  0  0  0  0  0
    8.7421   -5.1412   16.3650 C   0  0  0  0  0  0  0  0  0  0  0  0
   11.4353   -2.9204   17.8044 C   0  0  0  0  0  0  0  0  0  0  0  0
   11.1529   -4.3028   22.1277 C   0  0  0  0  0  0  0  0  0  0  0  0
   11.1290   -4.8502   19.8052 C   0  0  0  0  0  0  0  0  0  0  0  0
   12.4329   -4.2159   24.4224 C   0  0  0  0  0  0  0  0  0  0  0  0
    3.4740   -9.0387   16.5022 C   0  0  0  0  0  0  0  0  0  0  0  0
    6.8384   -7.9290   17.5282 N   0  0  0  0  0  0  0  0  0  0  0  0
    9.4126   -5.9853   18.4899 C   0  0  0  0  0  0  0  0  0  0  0  0
    4.2064  -10.3242   18.3302 C   0  0  0  0  0  0  0  0  0  0  0  0
    9.6599   -4.1551   16.4796 N   0  0  0  0  0  0  0  0  0  0  0  0
    7.0644   -6.4612   15.7375 N   0  0  0  0  0  0  0  0  0  0  0  0
    5.3549   -9.6322   18.3190 C   0  0  0  0  0  0  0  0  0  0  0  0
   10.3704   -4.9638   18.6510 C   0  0  0  0  0  0  0  0  0  0  0  0
    5.5935   -8.6419   17.4234 C   0  0  0  0  0  0  0  0  0  0  0  0
   13.0726   -4.6648   23.3394 O   0  0  0  0  0  0  0  0  0  0  0  0
    8.5955   -6.0705   17.3996 C   0  0  0  0  0  0  0  0  0  0  0  0
    4.6223   -8.3832   16.5030 C   0  0  0  0  0  0  0  0  0  0  0  0
   12.4690   -5.2624   19.9024 C   0  0  0  0  0  0  0  0  0  0  0  0
    3.2548   -9.9919   17.4189 C   0  0  0  0  0  0  0  0  0  0  0  0
   12.4767   -4.7393   22.1790 C   0  0  0  0  0  0  0  0  0  0  0  0
    7.8593   -5.3772   15.3569 N   0  0  0  0  0  0  0  0  0  0  0  0
    7.4412   -6.9038   16.9283 C   0  0  0  0  0  0  0  0  0  0  0  0
  1 21  4  0
  1 23  4  0
  2  5  1  0
  2 13  4  0
  2 16  4  0
  3  6  4  0
  3  7  4  0
  4 13  4  0
  4 19  4  0
  4 24  4  0
  6 23  4  0
  7 16  1  0
  7 21  4  0
  8 18  1  0
  9 20  4  0
  9 22  4  0
 10 17  1  0
 10 25  1  0
 11 16  4  0
 11 19  4  0
 12 15  4  0
 12 22  4  0
 14 24  4  0
 14 25  4  0
 15 17  4  0
 17 20  4  0
 18 23  1  0
 19 25  4  0
M  END
$$$$

 Created by Python create_sdf_string function

 25 28  0  0  0  0  0  0  0  0999 V2000
   13.1533   -5.2399   21.0682 C   0  0  0  0  0  0  0  0  0  0  0  0
   10.4729   -4.0295   17.6135 C   0  0  0  0  0  0  0  0  0  0  0  0
   10.4789   -4.3641   20.9564 C   0  0  0  0  0  0  0  0  0  0  0  0
    8.7421   -5.1412   16.3650 C   0  0  0  0  0  0  0  0  0  0  0  0
   11.4353   -2.9204   17.8044 C   0  0  0  0  0  0  0  0  0  0  0  0
   11.1529   -4.3028   22.1277 C   0  0  0  0  0  0  0  0  0  0  0  0
   11.1290   -4.8502   19.8052 C   0  0  0  0  0  0  0  0  0  0  0  0
   12.4329   -4.2159   24.4224 C   0  0  0  0  0  0  0  0  0  0  0  0
    3.4740   -9.0387   16.5022 C   0  0  0  0  0  0  0  0  0  0  0  0
    6.8384   -7.9290   17.5282 N   0  0  0  0  0  0  0  0  0  0  0  0
    9.4126   -5.9853   18.4899 C   0  0  0  0  0  0  0  0  0  0  0  0
    4.2064  -10.3242   18.3302 C   0  0  0  0  0  0  0  0  0  0  0  0
    9.6599   -4.1551   16.4796 N   0  0  0  0  0  0  0  0  0  0  0  0
    7.0644   -6.4612   15.7375 N   0  0  0  0  0  0  0  0  0  0  0  0
    5.3549   -9.6322   18.3190 C   0  0  0  0  0  0  0  0  0  0  0  0
   10.3704   -4.9638   18.6510 C   0  0  0  0  0  0  0  0  0  0  0  0
    5.5935   -8.6419   17.4234 C   0  0  0  0  0  0  0  0  0  0  0  0
   13.0726   -4.6648   23.3394 O   0  0  0  0  0  0  0  0  0  0  0  0
    8.5955   -6.0705   17.3996 C   0  0  0  0  0  0  0  0  0  0  0  0
    4.6223   -8.3832   16.5030 C   0  0  0  0  0  0  0  0  0  0  0  0
   12.4690   -5.2624   19.9024 C   0  0  0  0  0  0  0  0  0  0  0  0
    3.2548   -9.9919   17.4189 C   0  0  0  0  0  0  0  0  0  0  0  0
   12.4767   -4.7393   22.1790 C   0  0  0  0  0  0  0  0  0  0  0  0
    7.8593   -5.3772   15.3569 N   0  0  0  0  0  0  0  0  0  0  0  0
    7.4412   -6.9038   16.9283 C   0  0  0  0  0  0  0  0  0  0  0  0
  1 21  4  0
  1 23  4  0
  2  5  1  0
  2 13  4  0
  2 16  4  0
  3  6  4  0
  3  7  4  0
  4 13  4  0
  4 19  4  0
  4 24  4  0
  6 23  4  0
  7 16  1  0
  7 21  4  0
  8 18  1  0
  9 20  4  0
  9 22  4  0
 10 17  1  0
 10 25  1  0
 11 16  4  0
 11 19  4  0
 12 15  4  0
 12 22  4  0
 14 24  4  0
 14 25  4  0
 15 17  4  0
 17 20  4  0
 18 23  1  0
 19 25  4  0
M  END
$$$$

 Created by Python create_sdf_string function

 25 28  0  0  0  0  0  0  0  0999 V2000
   13.1533   -5.2399   21.0682 C   0  0  0  0  0  0  0  0  0  0  0  0
   10.4729   -4.0295   17.6135 C   0  0  0  0  0  0  0  0  0  0  0  0
   10.4789   -4.3641   20.9564 C   0  0  0  0  0  0  0  0  0  0  0  0
    8.7421   -5.1412   16.3650 C   0  0  0  0  0  0  0  0  0  0  0  0
   11.4353   -2.9204   17.8044 C   0  0  0  0  0  0  0  0  0  0  0  0
   11.1529   -4.3028   22.1277 C   0  0  0  0  0  0  0  0  0  0  0  0
   11.1290   -4.8502   19.8052 C   0  0  0  0  0  0  0  0  0  0  0  0
   12.4329   -4.2159   24.4224 C   0  0  0  0  0  0  0  0  0  0  0  0
    3.4740   -9.0387   16.5022 C   0  0  0  0  0  0  0  0  0  0  0  0
    6.8384   -7.9290   17.5282 N   0  0  0  0  0  0  0  0  0  0  0  0
    9.4126   -5.9853   18.4899 C   0  0  0  0  0  0  0  0  0  0  0  0
    4.2064  -10.3242   18.3302 C   0  0  0  0  0  0  0  0  0  0  0  0
    9.6599   -4.1551   16.4796 N   0  0  0  0  0  0  0  0  0  0  0  0
    7.0644   -6.4612   15.7375 N   0  0  0  0  0  0  0  0  0  0  0  0
    5.3549   -9.6322   18.3190 C   0  0  0  0  0  0  0  0  0  0  0  0
   10.3704   -4.9638   18.6510 C   0  0  0  0  0  0  0  0  0  0  0  0
    5.5935   -8.6419   17.4234 C   0  0  0  0  0  0  0  0  0  0  0  0
   13.0726   -4.6648   23.3394 O   0  0  0  0  0  0  0  0  0  0  0  0
    8.5955   -6.0705   17.3996 C   0  0  0  0  0  0  0  0  0  0  0  0
    4.6223   -8.3832   16.5030 C   0  0  0  0  0  0  0  0  0  0  0  0
   12.4690   -5.2624   19.9024 C   0  0  0  0  0  0  0  0  0  0  0  0
    3.2548   -9.9919   17.4189 C   0  0  0  0  0  0  0  0  0  0  0  0
   12.4767   -4.7393   22.1790 C   0  0  0  0  0  0  0  0  0  0  0  0
    7.8593   -5.3772   15.3569 N   0  0  0  0  0  0  0  0  0  0  0  0
    7.4412   -6.9038   16.9283 C   0  0  0  0  0  0  0  0  0  0  0  0
  1 21  4  0
  1 23  4  0
  2  5  1  0
  2 13  4  0
  2 16  4  0
  3  6  4  0
  3  7  4  0
  4 13  4  0
  4 19  4  0
  4 24  4  0
  6 23  4  0
  7 16  1  0
  7 21  4  0
  8 18  1  0
  9 20  4  0
  9 22  4  0
 10 17  1  0
 10 25  1  0
 11 16  4  0
 11 19  4  0
 12 15  4  0
 12 22  4  0
 14 24  4  0
 14 25  4  0
 15 17  4  0
 17 20  4  0
 18 23  1  0
 19 25  4  0
M  END
$$$$

 Created by Python create_sdf_string function

 25 28  0  0  0  0  0  0  0  0999 V2000
   13.1533   -5.2399   21.0682 C   0  0  0  0  0  0  0  0  0  0  0  0
   10.4729   -4.0295   17.6135 C   0  0  0  0  0  0  0  0  0  0  0  0
   10.4789   -4.3641   20.9564 C   0  0  0  0  0  0  0  0  0  0  0  0
    8.7421   -5.1412   16.3650 C   0  0  0  0  0  0  0  0  0  0  0  0
   11.4353   -2.9204   17.8044 C   0  0  0  0  0  0  0  0  0  0  0  0
   11.1529   -4.3028   22.1277 C   0  0  0  0  0  0  0  0  0  0  0  0
   11.1290   -4.8502   19.8052 C   0  0  0  0  0  0  0  0  0  0  0  0
   12.4329   -4.2159   24.4224 C   0  0  0  0  0  0  0  0  0  0  0  0
    3.4740   -9.0387   16.5022 C   0  0  0  0  0  0  0  0  0  0  0  0
    6.8384   -7.9290   17.5282 N   0  0  0  0  0  0  0  0  0  0  0  0
    9.4126   -5.9853   18.4899 C   0  0  0  0  0  0  0  0  0  0  0  0
    4.2064  -10.3242   18.3302 C   0  0  0  0  0  0  0  0  0  0  0  0
    9.6599   -4.1551   16.4796 N   0  0  0  0  0  0  0  0  0  0  0  0
    7.0644   -6.4612   15.7375 N   0  0  0  0  0  0  0  0  0  0  0  0
    5.3549   -9.6322   18.3190 C   0  0  0  0  0  0  0  0  0  0  0  0
   10.3704   -4.9638   18.6510 C   0  0  0  0  0  0  0  0  0  0  0  0
    5.5935   -8.6419   17.4234 C   0  0  0  0  0  0  0  0  0  0  0  0
   13.0726   -4.6648   23.3394 O   0  0  0  0  0  0  0  0  0  0  0  0
    8.5955   -6.0705   17.3996 C   0  0  0  0  0  0  0  0  0  0  0  0
    4.6223   -8.3832   16.5030 C   0  0  0  0  0  0  0  0  0  0  0  0
   12.4690   -5.2624   19.9024 C   0  0  0  0  0  0  0  0  0  0  0  0
    3.2548   -9.9919   17.4189 C   0  0  0  0  0  0  0  0  0  0  0  0
   12.4767   -4.7393   22.1790 C   0  0  0  0  0  0  0  0  0  0  0  0
    7.8593   -5.3772   15.3569 N   0  0  0  0  0  0  0  0  0  0  0  0
    7.4412   -6.9038   16.9283 C   0  0  0  0  0  0  0  0  0  0  0  0
  1 21  4  0
  1 23  4  0
  2  5  1  0
  2 13  4  0
  2 16  4  0
  3  6  4  0
  3  7  4  0
  4 13  4  0
  4 19  4  0
  4 24  4  0
  6 23  4  0
  7 16  1  0
  7 21  4  0
  8 18  1  0
  9 20  4  0
  9 22  4  0
 10 17  1  0
 10 25  1  0
 11 16  4  0
 11 19  4  0
 12 15  4  0
 12 22  4  0
 14 24  4  0
 14 25  4  0
 15 17  4  0
 17 20  4  0
 18 23  1  0
 19 25  4  0
M  END
$$$$

 Created by Python create_sdf_string function

 25 28  0  0  0  0  0  0  0  0999 V2000
   13.1533   -5.2399   21.0682 C   0  0  0  0  0  0  0  0  0  0  0  0
   10.4729   -4.0295   17.6135 C   0  0  0  0  0  0  0  0  0  0  0  0
   10.4789   -4.3641   20.9564 C   0  0  0  0  0  0  0  0  0  0  0  0
    8.7421   -5.1412   16.3650 C   0  0  0  0  0  0  0  0  0  0  0  0
   11.4353   -2.9204   17.8044 C   0  0  0  0  0  0  0  0  0  0  0  0
   11.1529   -4.3028   22.1277 C   0  0  0  0  0  0  0  0  0  0  0  0
   11.1290   -4.8502   19.8052 C   0  0  0  0  0  0  0  0  0  0  0  0
   12.4329   -4.2159   24.4224 C   0  0  0  0  0  0  0  0  0  0  0  0
    3.4740   -9.0387   16.5022 C   0  0  0  0  0  0  0  0  0  0  0  0
    6.8384   -7.9290   17.5282 N   0  0  0  0  0  0  0  0  0  0  0  0
    9.4126   -5.9853   18.4899 C   0  0  0  0  0  0  0  0  0  0  0  0
    4.2064  -10.3242   18.3302 C   0  0  0  0  0  0  0  0  0  0  0  0
    9.6599   -4.1551   16.4796 N   0  0  0  0  0  0  0  0  0  0  0  0
    7.0644   -6.4612   15.7375 N   0  0  0  0  0  0  0  0  0  0  0  0
    5.3549   -9.6322   18.3190 C   0  0  0  0  0  0  0  0  0  0  0  0
   10.3704   -4.9638   18.6510 C   0  0  0  0  0  0  0  0  0  0  0  0
    5.5935   -8.6419   17.4234 C   0  0  0  0  0  0  0  0  0  0  0  0
   13.0726   -4.6648   23.3394 O   0  0  0  0  0  0  0  0  0  0  0  0
    8.5955   -6.0705   17.3996 C   0  0  0  0  0  0  0  0  0  0  0  0
    4.6223   -8.3832   16.5030 C   0  0  0  0  0  0  0  0  0  0  0  0
   12.4690   -5.2624   19.9024 C   0  0  0  0  0  0  0  0  0  0  0  0
    3.2548   -9.9919   17.4189 C   0  0  0  0  0  0  0  0  0  0  0  0
   12.4767   -4.7393   22.1790 C   0  0  0  0  0  0  0  0  0  0  0  0
    7.8593   -5.3772   15.3569 N   0  0  0  0  0  0  0  0  0  0  0  0
    7.4412   -6.9038   16.9283 C   0  0  0  0  0  0  0  0  0  0  0  0
  1 21  4  0
  1 23  4  0
  2  5  1  0
  2 13  4  0
  2 16  4  0
  3  6  4  0
  3  7  4  0
  4 13  4  0
  4 19  4  0
  4 24  4  0
  6 23  4  0
  7 16  1  0
  7 21  4  0
  8 18  1  0
  9 20  4  0
  9 22  4  0
 10 17  1  0
 10 25  1  0
 11 16  4  0
 11 19  4  0
 12 15  4  0
 12 22  4  0
 14 24  4  0
 14 25  4  0
 15 17  4  0
 17 20  4  0
 18 23  1  0
 19 25  4  0
M  END
$$$$

 Created by Python create_sdf_string function

 25 28  0  0  0  0  0  0  0  0999 V2000
   13.1533   -5.2399   21.0682 C   0  0  0  0  0  0  0  0  0  0  0  0
   10.4729   -4.0295   17.6135 C   0  0  0  0  0  0  0  0  0  0  0  0
   10.4789   -4.3641   20.9564 C   0  0  0  0  0  0  0  0  0  0  0  0
    8.7421   -5.1412   16.3650 C   0  0  0  0  0  0  0  0  0  0  0  0
   11.4353   -2.9204   17.8044 C   0  0  0  0  0  0  0  0  0  0  0  0
   11.1529   -4.3028   22.1277 C   0  0  0  0  0  0  0  0  0  0  0  0
   11.1290   -4.8502   19.8052 C   0  0  0  0  0  0  0  0  0  0  0  0
   12.4329   -4.2159   24.4224 C   0  0  0  0  0  0  0  0  0  0  0  0
    3.4740   -9.0387   16.5022 C   0  0  0  0  0  0  0  0  0  0  0  0
    6.8384   -7.9290   17.5282 N   0  0  0  0  0  0  0  0  0  0  0  0
    9.4126   -5.9853   18.4899 C   0  0  0  0  0  0  0  0  0  0  0  0
    4.2064  -10.3242   18.3302 C   0  0  0  0  0  0  0  0  0  0  0  0
    9.6599   -4.1551   16.4796 N   0  0  0  0  0  0  0  0  0  0  0  0
    7.0644   -6.4612   15.7375 N   0  0  0  0  0  0  0  0  0  0  0  0
    5.3549   -9.6322   18.3190 C   0  0  0  0  0  0  0  0  0  0  0  0
   10.3704   -4.9638   18.6510 C   0  0  0  0  0  0  0  0  0  0  0  0
    5.5935   -8.6419   17.4234 C   0  0  0  0  0  0  0  0  0  0  0  0
   13.0726   -4.6648   23.3394 O   0  0  0  0  0  0  0  0  0  0  0  0
    8.5955   -6.0705   17.3996 C   0  0  0  0  0  0  0  0  0  0  0  0
    4.6223   -8.3832   16.5030 C   0  0  0  0  0  0  0  0  0  0  0  0
   12.4690   -5.2624   19.9024 C   0  0  0  0  0  0  0  0  0  0  0  0
    3.2548   -9.9919   17.4189 C   0  0  0  0  0  0  0  0  0  0  0  0
   12.4767   -4.7393   22.1790 C   0  0  0  0  0  0  0  0  0  0  0  0
    7.8593   -5.3772   15.3569 N   0  0  0  0  0  0  0  0  0  0  0  0
    7.4412   -6.9038   16.9283 C   0  0  0  0  0  0  0  0  0  0  0  0
  1 21  4  0
  1 23  4  0
  2  5  1  0
  2 13  4  0
  2 16  4  0
  3  6  4  0
  3  7  4  0
  4 13  4  0
  4 19  4  0
  4 24  4  0
  6 23  4  0
  7 16  1  0
  7 21  4  0
  8 18  1  0
  9 20  4  0
  9 22  4  0
 10 17  1  0
 10 25  1  0
 11 16  4  0
 11 19  4  0
 12 15  4  0
 12 22  4  0
 14 24  4  0
 14 25  4  0
 15 17  4  0
 17 20  4  0
 18 23  1  0
 19 25  4  0
M  END
$$$$

 Created by Python create_sdf_string function

 25 28  0  0  0  0  0  0  0  0999 V2000
   13.1533   -5.2399   21.0682 C   0  0  0  0  0  0  0  0  0  0  0  0
   10.4729   -4.0295   17.6135 C   0  0  0  0  0  0  0  0  0  0  0  0
   10.4789   -4.3641   20.9564 C   0  0  0  0  0  0  0  0  0  0  0  0
    8.7421   -5.1412   16.3650 C   0  0  0  0  0  0  0  0  0  0  0  0
   11.4353   -2.9204   17.8044 C   0  0  0  0  0  0  0  0  0  0  0  0
   11.1529   -4.3028   22.1277 C   0  0  0  0  0  0  0  0  0  0  0  0
   11.1290   -4.8502   19.8052 C   0  0  0  0  0  0  0  0  0  0  0  0
   12.4329   -4.2159   24.4224 C   0  0  0  0  0  0  0  0  0  0  0  0
    3.4740   -9.0387   16.5022 C   0  0  0  0  0  0  0  0  0  0  0  0
    6.8384   -7.9290   17.5282 N   0  0  0  0  0  0  0  0  0  0  0  0
    9.4126   -5.9853   18.4899 C   0  0  0  0  0  0  0  0  0  0  0  0
    4.2064  -10.3242   18.3302 C   0  0  0  0  0  0  0  0  0  0  0  0
    9.6599   -4.1551   16.4796 N   0  0  0  0  0  0  0  0  0  0  0  0
    7.0644   -6.4612   15.7375 N   0  0  0  0  0  0  0  0  0  0  0  0
    5.3549   -9.6322   18.3190 C   0  0  0  0  0  0  0  0  0  0  0  0
   10.3704   -4.9638   18.6510 C   0  0  0  0  0  0  0  0  0  0  0  0
    5.5935   -8.6419   17.4234 C   0  0  0  0  0  0  0  0  0  0  0  0
   13.0726   -4.6648   23.3394 O   0  0  0  0  0  0  0  0  0  0  0  0
    8.5955   -6.0705   17.3996 C   0  0  0  0  0  0  0  0  0  0  0  0
    4.6223   -8.3832   16.5030 C   0  0  0  0  0  0  0  0  0  0  0  0
   12.4690   -5.2624   19.9024 C   0  0  0  0  0  0  0  0  0  0  0  0
    3.2548   -9.9919   17.4189 C   0  0  0  0  0  0  0  0  0  0  0  0
   12.4767   -4.7393   22.1790 C   0  0  0  0  0  0  0  0  0  0  0  0
    7.8593   -5.3772   15.3569 N   0  0  0  0  0  0  0  0  0  0  0  0
    7.4412   -6.9038   16.9283 C   0  0  0  0  0  0  0  0  0  0  0  0
  1 21  4  0
  1 23  4  0
  2  5  1  0
  2 13  4  0
  2 16  4  0
  3  6  4  0
  3  7  4  0
  4 13  4  0
  4 19  4  0
  4 24  4  0
  6 23  4  0
  7 16  1  0
  7 21  4  0
  8 18  1  0
  9 20  4  0
  9 22  4  0
 10 17  1  0
 10 25  1  0
 11 16  4  0
 11 19  4  0
 12 15  4  0
 12 22  4  0
 14 24  4  0
 14 25  4  0
 15 17  4  0
 17 20  4  0
 18 23  1  0
 19 25  4  0
M  END
$$$$

 Created by Python create_sdf_string function

 25 28  0  0  0  0  0  0  0  0999 V2000
   13.1533   -5.2399   21.0682 C   0  0  0  0  0  0  0  0  0  0  0  0
   10.4729   -4.0295   17.6135 C   0  0  0  0  0  0  0  0  0  0  0  0
   10.4789   -4.3641   20.9564 C   0  0  0  0  0  0  0  0  0  0  0  0
    8.7421   -5.1412   16.3650 C   0  0  0  0  0  0  0  0  0  0  0  0
   11.4353   -2.9204   17.8044 C   0  0  0  0  0  0  0  0  0  0  0  0
   11.1529   -4.3028   22.1277 C   0  0  0  0  0  0  0  0  0  0  0  0
   11.1290   -4.8502   19.8052 C   0  0  0  0  0  0  0  0  0  0  0  0
   12.4329   -4.2159   24.4224 C   0  0  0  0  0  0  0  0  0  0  0  0
    3.4740   -9.0387   16.5022 C   0  0  0  0  0  0  0  0  0  0  0  0
    6.8384   -7.9290   17.5282 N   0  0  0  0  0  0  0  0  0  0  0  0
    9.4126   -5.9853   18.4899 C   0  0  0  0  0  0  0  0  0  0  0  0
    4.2064  -10.3242   18.3302 C   0  0  0  0  0  0  0  0  0  0  0  0
    9.6599   -4.1551   16.4796 N   0  0  0  0  0  0  0  0  0  0  0  0
    7.0644   -6.4612   15.7375 N   0  0  0  0  0  0  0  0  0  0  0  0
    5.3549   -9.6322   18.3190 C   0  0  0  0  0  0  0  0  0  0  0  0
   10.3704   -4.9638   18.6510 C   0  0  0  0  0  0  0  0  0  0  0  0
    5.5935   -8.6419   17.4234 C   0  0  0  0  0  0  0  0  0  0  0  0
   13.0726   -4.6648   23.3394 O   0  0  0  0  0  0  0  0  0  0  0  0
    8.5955   -6.0705   17.3996 C   0  0  0  0  0  0  0  0  0  0  0  0
    4.6223   -8.3832   16.5030 C   0  0  0  0  0  0  0  0  0  0  0  0
   12.4690   -5.2624   19.9024 C   0  0  0  0  0  0  0  0  0  0  0  0
    3.2548   -9.9919   17.4189 C   0  0  0  0  0  0  0  0  0  0  0  0
   12.4767   -4.7393   22.1790 C   0  0  0  0  0  0  0  0  0  0  0  0
    7.8593   -5.3772   15.3569 N   0  0  0  0  0  0  0  0  0  0  0  0
    7.4412   -6.9038   16.9283 C   0  0  0  0  0  0  0  0  0  0  0  0
  1 21  4  0
  1 23  4  0
  2  5  1  0
  2 13  4  0
  2 16  4  0
  3  6  4  0
  3  7  4  0
  4 13  4  0
  4 19  4  0
  4 24  4  0
  6 23  4  0
  7 16  1  0
  7 21  4  0
  8 18  1  0
  9 20  4  0
  9 22  4  0
 10 17  1  0
 10 25  1  0
 11 16  4  0
 11 19  4  0
 12 15  4  0
 12 22  4  0
 14 24  4  0
 14 25  4  0
 15 17  4  0
 17 20  4  0
 18 23  1  0
 19 25  4  0
M  END
$$$$

 Created by Python create_sdf_string function

 25 28  0  0  0  0  0  0  0  0999 V2000
   13.1533   -5.2399   21.0682 C   0  0  0  0  0  0  0  0  0  0  0  0
   10.4729   -4.0295   17.6135 C   0  0  0  0  0  0  0  0  0  0  0  0
   10.4789   -4.3641   20.9564 C   0  0  0  0  0  0  0  0  0  0  0  0
    8.7421   -5.1412   16.3650 C   0  0  0  0  0  0  0  0  0  0  0  0
   11.4353   -2.9204   17.8044 C   0  0  0  0  0  0  0  0  0  0  0  0
   11.1529   -4.3028   22.1277 C   0  0  0  0  0  0  0  0  0  0  0  0
   11.1290   -4.8502   19.8052 C   0  0  0  0  0  0  0  0  0  0  0  0
   12.4329   -4.2159   24.4224 C   0  0  0  0  0  0  0  0  0  0  0  0
    3.4740   -9.0387   16.5022 C   0  0  0  0  0  0  0  0  0  0  0  0
    6.8384   -7.9290   17.5282 N   0  0  0  0  0  0  0  0  0  0  0  0
    9.4126   -5.9853   18.4899 C   0  0  0  0  0  0  0  0  0  0  0  0
    4.2064  -10.3242   18.3302 C   0  0  0  0  0  0  0  0  0  0  0  0
    9.6599   -4.1551   16.4796 N   0  0  0  0  0  0  0  0  0  0  0  0
    7.0644   -6.4612   15.7375 N   0  0  0  0  0  0  0  0  0  0  0  0
    5.3549   -9.6322   18.3190 C   0  0  0  0  0  0  0  0  0  0  0  0
   10.3704   -4.9638   18.6510 C   0  0  0  0  0  0  0  0  0  0  0  0
    5.5935   -8.6419   17.4234 C   0  0  0  0  0  0  0  0  0  0  0  0
   13.0726   -4.6648   23.3394 O   0  0  0  0  0  0  0  0  0  0  0  0
    8.5955   -6.0705   17.3996 C   0  0  0  0  0  0  0  0  0  0  0  0
    4.6223   -8.3832   16.5030 C   0  0  0  0  0  0  0  0  0  0  0  0
   12.4690   -5.2624   19.9024 C   0  0  0  0  0  0  0  0  0  0  0  0
    3.2548   -9.9919   17.4189 C   0  0  0  0  0  0  0  0  0  0  0  0
   12.4767   -4.7393   22.1790 C   0  0  0  0  0  0  0  0  0  0  0  0
    7.8593   -5.3772   15.3569 N   0  0  0  0  0  0  0  0  0  0  0  0
    7.4412   -6.9038   16.9283 C   0  0  0  0  0  0  0  0  0  0  0  0
  1 21  4  0
  1 23  4  0
  2  5  1  0
  2 13  4  0
  2 16  4  0
  3  6  4  0
  3  7  4  0
  4 13  4  0
  4 19  4  0
  4 24  4  0
  6 23  4  0
  7 16  1  0
  7 21  4  0
  8 18  1  0
  9 20  4  0
  9 22  4  0
 10 17  1  0
 10 25  1  0
 11 16  4  0
 11 19  4  0
 12 15  4  0
 12 22  4  0
 14 24  4  0
 14 25  4  0
 15 17  4  0
 17 20  4  0
 18 23  1  0
 19 25  4  0
M  END
$$$$

 Created by Python create_sdf_string function

 25 28  0  0  0  0  0  0  0  0999 V2000
   13.1533   -5.2399   21.0682 C   0  0  0  0  0  0  0  0  0  0  0  0
   10.4729   -4.0295   17.6135 C   0  0  0  0  0  0  0  0  0  0  0  0
   10.4789   -4.3641   20.9564 C   0  0  0  0  0  0  0  0  0  0  0  0
    8.7421   -5.1412   16.3650 C   0  0  0  0  0  0  0  0  0  0  0  0
   11.4353   -2.9204   17.8044 C   0  0  0  0  0  0  0  0  0  0  0  0
   11.1529   -4.3028   22.1277 C   0  0  0  0  0  0  0  0  0  0  0  0
   11.1290   -4.8502   19.8052 C   0  0  0  0  0  0  0  0  0  0  0  0
   12.4329   -4.2159   24.4224 C   0  0  0  0  0  0  0  0  0  0  0  0
    3.4740   -9.0387   16.5022 C   0  0  0  0  0  0  0  0  0  0  0  0
    6.8384   -7.9290   17.5282 N   0  0  0  0  0  0  0  0  0  0  0  0
    9.4126   -5.9853   18.4899 C   0  0  0  0  0  0  0  0  0  0  0  0
    4.2064  -10.3242   18.3302 C   0  0  0  0  0  0  0  0  0  0  0  0
    9.6599   -4.1551   16.4796 N   0  0  0  0  0  0  0  0  0  0  0  0
    7.0644   -6.4612   15.7375 N   0  0  0  0  0  0  0  0  0  0  0  0
    5.3549   -9.6322   18.3190 C   0  0  0  0  0  0  0  0  0  0  0  0
   10.3704   -4.9638   18.6510 C   0  0  0  0  0  0  0  0  0  0  0  0
    5.5935   -8.6419   17.4234 C   0  0  0  0  0  0  0  0  0  0  0  0
   13.0726   -4.6648   23.3394 O   0  0  0  0  0  0  0  0  0  0  0  0
    8.5955   -6.0705   17.3996 C   0  0  0  0  0  0  0  0  0  0  0  0
    4.6223   -8.3832   16.5030 C   0  0  0  0  0  0  0  0  0  0  0  0
   12.4690   -5.2624   19.9024 C   0  0  0  0  0  0  0  0  0  0  0  0
    3.2548   -9.9919   17.4189 C   0  0  0  0  0  0  0  0  0  0  0  0
   12.4767   -4.7393   22.1790 C   0  0  0  0  0  0  0  0  0  0  0  0
    7.8593   -5.3772   15.3569 N   0  0  0  0  0  0  0  0  0  0  0  0
    7.4412   -6.9038   16.9283 C   0  0  0  0  0  0  0  0  0  0  0  0
  1 21  4  0
  1 23  4  0
  2  5  1  0
  2 13  4  0
  2 16  4  0
  3  6  4  0
  3  7  4  0
  4 13  4  0
  4 19  4  0
  4 24  4  0
  6 23  4  0
  7 16  1  0
  7 21  4  0
  8 18  1  0
  9 20  4  0
  9 22  4  0
 10 17  1  0
 10 25  1  0
 11 16  4  0
 11 19  4  0
 12 15  4  0
 12 22  4  0
 14 24  4  0
 14 25  4  0
 15 17  4  0
 17 20  4  0
 18 23  1  0
 19 25  4  0
M  END
$$$$

 Created by Python create_sdf_string function

 25 28  0  0  0  0  0  0  0  0999 V2000
   13.1533   -5.2399   21.0682 C   0  0  0  0  0  0  0  0  0  0  0  0
   10.4729   -4.0295   17.6135 C   0  0  0  0  0  0  0  0  0  0  0  0
   10.4789   -4.3641   20.9564 C   0  0  0  0  0  0  0  0  0  0  0  0
    8.7421   -5.1412   16.3650 C   0  0  0  0  0  0  0  0  0  0  0  0
   11.4353   -2.9204   17.8044 C   0  0  0  0  0  0  0  0  0  0  0  0
   11.1529   -4.3028   22.1277 C   0  0  0  0  0  0  0  0  0  0  0  0
   11.1290   -4.8502   19.8052 C   0  0  0  0  0  0  0  0  0  0  0  0
   12.4329   -4.2159   24.4224 C   0  0  0  0  0  0  0  0  0  0  0  0
    3.4740   -9.0387   16.5022 C   0  0  0  0  0  0  0  0  0  0  0  0
    6.8384   -7.9290   17.5282 N   0  0  0  0  0  0  0  0  0  0  0  0
    9.4126   -5.9853   18.4899 C   0  0  0  0  0  0  0  0  0  0  0  0
    4.2064  -10.3242   18.3302 C   0  0  0  0  0  0  0  0  0  0  0  0
    9.6599   -4.1551   16.4796 N   0  0  0  0  0  0  0  0  0  0  0  0
    7.0644   -6.4612   15.7375 N   0  0  0  0  0  0  0  0  0  0  0  0
    5.3549   -9.6322   18.3190 C   0  0  0  0  0  0  0  0  0  0  0  0
   10.3704   -4.9638   18.6510 C   0  0  0  0  0  0  0  0  0  0  0  0
    5.5935   -8.6419   17.4234 C   0  0  0  0  0  0  0  0  0  0  0  0
   13.0726   -4.6648   23.3394 O   0  0  0  0  0  0  0  0  0  0  0  0
    8.5955   -6.0705   17.3996 C   0  0  0  0  0  0  0  0  0  0  0  0
    4.6223   -8.3832   16.5030 C   0  0  0  0  0  0  0  0  0  0  0  0
   12.4690   -5.2624   19.9024 C   0  0  0  0  0  0  0  0  0  0  0  0
    3.2548   -9.9919   17.4189 C   0  0  0  0  0  0  0  0  0  0  0  0
   12.4767   -4.7393   22.1790 C   0  0  0  0  0  0  0  0  0  0  0  0
    7.8593   -5.3772   15.3569 N   0  0  0  0  0  0  0  0  0  0  0  0
    7.4412   -6.9038   16.9283 C   0  0  0  0  0  0  0  0  0  0  0  0
  1 21  4  0
  1 23  4  0
  2  5  1  0
  2 13  4  0
  2 16  4  0
  3  6  4  0
  3  7  4  0
  4 13  4  0
  4 19  4  0
  4 24  4  0
  6 23  4  0
  7 16  1  0
  7 21  4  0
  8 18  1  0
  9 20  4  0
  9 22  4  0
 10 17  1  0
 10 25  1  0
 11 16  4  0
 11 19  4  0
 12 15  4  0
 12 22  4  0
 14 24  4  0
 14 25  4  0
 15 17  4  0
 17 20  4  0
 18 23  1  0
 19 25  4  0
M  END
$$$$

 Created by Python create_sdf_string function

 25 28  0  0  0  0  0  0  0  0999 V2000
   13.1533   -5.2399   21.0682 C   0  0  0  0  0  0  0  0  0  0  0  0
   10.4729   -4.0295   17.6135 C   0  0  0  0  0  0  0  0  0  0  0  0
   10.4789   -4.3641   20.9564 C   0  0  0  0  0  0  0  0  0  0  0  0
    8.7421   -5.1412   16.3650 C   0  0  0  0  0  0  0  0  0  0  0  0
   11.4353   -2.9204   17.8044 C   0  0  0  0  0  0  0  0  0  0  0  0
   11.1529   -4.3028   22.1277 C   0  0  0  0  0  0  0  0  0  0  0  0
   11.1290   -4.8502   19.8052 C   0  0  0  0  0  0  0  0  0  0  0  0
   12.4329   -4.2159   24.4224 C   0  0  0  0  0  0  0  0  0  0  0  0
    3.4740   -9.0387   16.5022 C   0  0  0  0  0  0  0  0  0  0  0  0
    6.8384   -7.9290   17.5282 N   0  0  0  0  0  0  0  0  0  0  0  0
    9.4126   -5.9853   18.4899 C   0  0  0  0  0  0  0  0  0  0  0  0
    4.2064  -10.3242   18.3302 C   0  0  0  0  0  0  0  0  0  0  0  0
    9.6599   -4.1551   16.4796 N   0  0  0  0  0  0  0  0  0  0  0  0
    7.0644   -6.4612   15.7375 N   0  0  0  0  0  0  0  0  0  0  0  0
    5.3549   -9.6322   18.3190 C   0  0  0  0  0  0  0  0  0  0  0  0
   10.3704   -4.9638   18.6510 C   0  0  0  0  0  0  0  0  0  0  0  0
    5.5935   -8.6419   17.4234 C   0  0  0  0  0  0  0  0  0  0  0  0
   13.0726   -4.6648   23.3394 O   0  0  0  0  0  0  0  0  0  0  0  0
    8.5955   -6.0705   17.3996 C   0  0  0  0  0  0  0  0  0  0  0  0
    4.6223   -8.3832   16.5030 C   0  0  0  0  0  0  0  0  0  0  0  0
   12.4690   -5.2624   19.9024 C   0  0  0  0  0  0  0  0  0  0  0  0
    3.2548   -9.9919   17.4189 C   0  0  0  0  0  0  0  0  0  0  0  0
   12.4767   -4.7393   22.1790 C   0  0  0  0  0  0  0  0  0  0  0  0
    7.8593   -5.3772   15.3569 N   0  0  0  0  0  0  0  0  0  0  0  0
    7.4412   -6.9038   16.9283 C   0  0  0  0  0  0  0  0  0  0  0  0
  1 21  4  0
  1 23  4  0
  2  5  1  0
  2 13  4  0
  2 16  4  0
  3  6  4  0
  3  7  4  0
  4 13  4  0
  4 19  4  0
  4 24  4  0
  6 23  4  0
  7 16  1  0
  7 21  4  0
  8 18  1  0
  9 20  4  0
  9 22  4  0
 10 17  1  0
 10 25  1  0
 11 16  4  0
 11 19  4  0
 12 15  4  0
 12 22  4  0
 14 24  4  0
 14 25  4  0
 15 17  4  0
 17 20  4  0
 18 23  1  0
 19 25  4  0
M  END
$$$$

 Created by Python create_sdf_string function

 25 28  0  0  0  0  0  0  0  0999 V2000
   13.1533   -5.2399   21.0682 C   0  0  0  0  0  0  0  0  0  0  0  0
   10.4729   -4.0295   17.6135 C   0  0  0  0  0  0  0  0  0  0  0  0
   10.4789   -4.3641   20.9564 C   0  0  0  0  0  0  0  0  0  0  0  0
    8.7421   -5.1412   16.3650 C   0  0  0  0  0  0  0  0  0  0  0  0
   11.4353   -2.9204   17.8044 C   0  0  0  0  0  0  0  0  0  0  0  0
   11.1529   -4.3028   22.1277 C   0  0  0  0  0  0  0  0  0  0  0  0
   11.1290   -4.8502   19.8052 C   0  0  0  0  0  0  0  0  0  0  0  0
   12.4329   -4.2159   24.4224 C   0  0  0  0  0  0  0  0  0  0  0  0
    3.4740   -9.0387   16.5022 C   0  0  0  0  0  0  0  0  0  0  0  0
    6.8384   -7.9290   17.5282 N   0  0  0  0  0  0  0  0  0  0  0  0
    9.4126   -5.9853   18.4899 C   0  0  0  0  0  0  0  0  0  0  0  0
    4.2064  -10.3242   18.3302 C   0  0  0  0  0  0  0  0  0  0  0  0
    9.6599   -4.1551   16.4796 N   0  0  0  0  0  0  0  0  0  0  0  0
    7.0644   -6.4612   15.7375 N   0  0  0  0  0  0  0  0  0  0  0  0
    5.3549   -9.6322   18.3190 C   0  0  0  0  0  0  0  0  0  0  0  0
   10.3704   -4.9638   18.6510 C   0  0  0  0  0  0  0  0  0  0  0  0
    5.5935   -8.6419   17.4234 C   0  0  0  0  0  0  0  0  0  0  0  0
   13.0726   -4.6648   23.3394 O   0  0  0  0  0  0  0  0  0  0  0  0
    8.5955   -6.0705   17.3996 C   0  0  0  0  0  0  0  0  0  0  0  0
    4.6223   -8.3832   16.5030 C   0  0  0  0  0  0  0  0  0  0  0  0
   12.4690   -5.2624   19.9024 C   0  0  0  0  0  0  0  0  0  0  0  0
    3.2548   -9.9919   17.4189 C   0  0  0  0  0  0  0  0  0  0  0  0
   12.4767   -4.7393   22.1790 C   0  0  0  0  0  0  0  0  0  0  0  0
    7.8593   -5.3772   15.3569 N   0  0  0  0  0  0  0  0  0  0  0  0
    7.4412   -6.9038   16.9283 C   0  0  0  0  0  0  0  0  0  0  0  0
  1 21  4  0
  1 23  4  0
  2  5  1  0
  2 13  4  0
  2 16  4  0
  3  6  4  0
  3  7  4  0
  4 13  4  0
  4 19  4  0
  4 24  4  0
  6 23  4  0
  7 16  1  0
  7 21  4  0
  8 18  1  0
  9 20  4  0
  9 22  4  0
 10 17  1  0
 10 25  1  0
 11 16  4  0
 11 19  4  0
 12 15  4  0
 12 22  4  0
 14 24  4  0
 14 25  4  0
 15 17  4  0
 17 20  4  0
 18 23  1  0
 19 25  4  0
M  END
$$$$

 Created by Python create_sdf_string function

 25 28  0  0  0  0  0  0  0  0999 V2000
   13.1533   -5.2399   21.0682 C   0  0  0  0  0  0  0  0  0  0  0  0
   10.4729   -4.0295   17.6135 C   0  0  0  0  0  0  0  0  0  0  0  0
   10.4789   -4.3641   20.9564 C   0  0  0  0  0  0  0  0  0  0  0  0
    8.7421   -5.1412   16.3650 C   0  0  0  0  0  0  0  0  0  0  0  0
   11.4353   -2.9204   17.8044 C   0  0  0  0  0  0  0  0  0  0  0  0
   11.1529   -4.3028   22.1277 C   0  0  0  0  0  0  0  0  0  0  0  0
   11.1290   -4.8502   19.8052 C   0  0  0  0  0  0  0  0  0  0  0  0
   12.4329   -4.2159   24.4224 C   0  0  0  0  0  0  0  0  0  0  0  0
    3.4740   -9.0387   16.5022 C   0  0  0  0  0  0  0  0  0  0  0  0
    6.8384   -7.9290   17.5282 N   0  0  0  0  0  0  0  0  0  0  0  0
    9.4126   -5.9853   18.4899 C   0  0  0  0  0  0  0  0  0  0  0  0
    4.2064  -10.3242   18.3302 C   0  0  0  0  0  0  0  0  0  0  0  0
    9.6599   -4.1551   16.4796 N   0  0  0  0  0  0  0  0  0  0  0  0
    7.0644   -6.4612   15.7375 N   0  0  0  0  0  0  0  0  0  0  0  0
    5.3549   -9.6322   18.3190 C   0  0  0  0  0  0  0  0  0  0  0  0
   10.3704   -4.9638   18.6510 C   0  0  0  0  0  0  0  0  0  0  0  0
    5.5935   -8.6419   17.4234 C   0  0  0  0  0  0  0  0  0  0  0  0
   13.0726   -4.6648   23.3394 O   0  0  0  0  0  0  0  0  0  0  0  0
    8.5955   -6.0705   17.3996 C   0  0  0  0  0  0  0  0  0  0  0  0
    4.6223   -8.3832   16.5030 C   0  0  0  0  0  0  0  0  0  0  0  0
   12.4690   -5.2624   19.9024 C   0  0  0  0  0  0  0  0  0  0  0  0
    3.2548   -9.9919   17.4189 C   0  0  0  0  0  0  0  0  0  0  0  0
   12.4767   -4.7393   22.1790 C   0  0  0  0  0  0  0  0  0  0  0  0
    7.8593   -5.3772   15.3569 N   0  0  0  0  0  0  0  0  0  0  0  0
    7.4412   -6.9038   16.9283 C   0  0  0  0  0  0  0  0  0  0  0  0
  1 21  4  0
  1 23  4  0
  2  5  1  0
  2 13  4  0
  2 16  4  0
  3  6  4  0
  3  7  4  0
  4 13  4  0
  4 19  4  0
  4 24  4  0
  6 23  4  0
  7 16  1  0
  7 21  4  0
  8 18  1  0
  9 20  4  0
  9 22  4  0
 10 17  1  0
 10 25  1  0
 11 16  4  0
 11 19  4  0
 12 15  4  0
 12 22  4  0
 14 24  4  0
 14 25  4  0
 15 17  4  0
 17 20  4  0
 18 23  1  0
 19 25  4  0
M  END
$$$$

 Created by Python create_sdf_string function

 25 28  0  0  0  0  0  0  0  0999 V2000
   13.1533   -5.2399   21.0682 C   0  0  0  0  0  0  0  0  0  0  0  0
   10.4729   -4.0295   17.6135 C   0  0  0  0  0  0  0  0  0  0  0  0
   10.4789   -4.3641   20.9564 C   0  0  0  0  0  0  0  0  0  0  0  0
    8.7421   -5.1412   16.3650 C   0  0  0  0  0  0  0  0  0  0  0  0
   11.4353   -2.9204   17.8044 C   0  0  0  0  0  0  0  0  0  0  0  0
   11.1529   -4.3028   22.1277 C   0  0  0  0  0  0  0  0  0  0  0  0
   11.1290   -4.8502   19.8052 C   0  0  0  0  0  0  0  0  0  0  0  0
   12.4329   -4.2159   24.4224 C   0  0  0  0  0  0  0  0  0  0  0  0
    3.4740   -9.0387   16.5022 C   0  0  0  0  0  0  0  0  0  0  0  0
    6.8384   -7.9290   17.5282 N   0  0  0  0  0  0  0  0  0  0  0  0
    9.4126   -5.9853   18.4899 C   0  0  0  0  0  0  0  0  0  0  0  0
    4.2064  -10.3242   18.3302 C   0  0  0  0  0  0  0  0  0  0  0  0
    9.6599   -4.1551   16.4796 N   0  0  0  0  0  0  0  0  0  0  0  0
    7.0644   -6.4612   15.7375 N   0  0  0  0  0  0  0  0  0  0  0  0
    5.3549   -9.6322   18.3190 C   0  0  0  0  0  0  0  0  0  0  0  0
   10.3704   -4.9638   18.6510 C   0  0  0  0  0  0  0  0  0  0  0  0
    5.5935   -8.6419   17.4234 C   0  0  0  0  0  0  0  0  0  0  0  0
   13.0726   -4.6648   23.3394 O   0  0  0  0  0  0  0  0  0  0  0  0
    8.5955   -6.0705   17.3996 C   0  0  0  0  0  0  0  0  0  0  0  0
    4.6223   -8.3832   16.5030 C   0  0  0  0  0  0  0  0  0  0  0  0
   12.4690   -5.2624   19.9024 C   0  0  0  0  0  0  0  0  0  0  0  0
    3.2548   -9.9919   17.4189 C   0  0  0  0  0  0  0  0  0  0  0  0
   12.4767   -4.7393   22.1790 C   0  0  0  0  0  0  0  0  0  0  0  0
    7.8593   -5.3772   15.3569 N   0  0  0  0  0  0  0  0  0  0  0  0
    7.4412   -6.9038   16.9283 C   0  0  0  0  0  0  0  0  0  0  0  0
  1 21  4  0
  1 23  4  0
  2  5  1  0
  2 13  4  0
  2 16  4  0
  3  6  4  0
  3  7  4  0
  4 13  4  0
  4 19  4  0
  4 24  4  0
  6 23  4  0
  7 16  1  0
  7 21  4  0
  8 18  1  0
  9 20  4  0
  9 22  4  0
 10 17  1  0
 10 25  1  0
 11 16  4  0
 11 19  4  0
 12 15  4  0
 12 22  4  0
 14 24  4  0
 14 25  4  0
 15 17  4  0
 17 20  4  0
 18 23  1  0
 19 25  4  0
M  END
$$$$

 Created by Python create_sdf_string function

 25 28  0  0  0  0  0  0  0  0999 V2000
   13.1533   -5.2399   21.0682 C   0  0  0  0  0  0  0  0  0  0  0  0
   10.4729   -4.0295   17.6135 C   0  0  0  0  0  0  0  0  0  0  0  0
   10.4789   -4.3641   20.9564 C   0  0  0  0  0  0  0  0  0  0  0  0
    8.7421   -5.1412   16.3650 C   0  0  0  0  0  0  0  0  0  0  0  0
   11.4353   -2.9204   17.8044 C   0  0  0  0  0  0  0  0  0  0  0  0
   11.1529   -4.3028   22.1277 C   0  0  0  0  0  0  0  0  0  0  0  0
   11.1290   -4.8502   19.8052 C   0  0  0  0  0  0  0  0  0  0  0  0
   12.4329   -4.2159   24.4224 C   0  0  0  0  0  0  0  0  0  0  0  0
    3.4740   -9.0387   16.5022 C   0  0  0  0  0  0  0  0  0  0  0  0
    6.8384   -7.9290   17.5282 N   0  0  0  0  0  0  0  0  0  0  0  0
    9.4126   -5.9853   18.4899 C   0  0  0  0  0  0  0  0  0  0  0  0
    4.2064  -10.3242   18.3302 C   0  0  0  0  0  0  0  0  0  0  0  0
    9.6599   -4.1551   16.4796 N   0  0  0  0  0  0  0  0  0  0  0  0
    7.0644   -6.4612   15.7375 N   0  0  0  0  0  0  0  0  0  0  0  0
    5.3549   -9.6322   18.3190 C   0  0  0  0  0  0  0  0  0  0  0  0
   10.3704   -4.9638   18.6510 C   0  0  0  0  0  0  0  0  0  0  0  0
    5.5935   -8.6419   17.4234 C   0  0  0  0  0  0  0  0  0  0  0  0
   13.0726   -4.6648   23.3394 O   0  0  0  0  0  0  0  0  0  0  0  0
    8.5955   -6.0705   17.3996 C   0  0  0  0  0  0  0  0  0  0  0  0
    4.6223   -8.3832   16.5030 C   0  0  0  0  0  0  0  0  0  0  0  0
   12.4690   -5.2624   19.9024 C   0  0  0  0  0  0  0  0  0  0  0  0
    3.2548   -9.9919   17.4189 C   0  0  0  0  0  0  0  0  0  0  0  0
   12.4767   -4.7393   22.1790 C   0  0  0  0  0  0  0  0  0  0  0  0
    7.8593   -5.3772   15.3569 N   0  0  0  0  0  0  0  0  0  0  0  0
    7.4412   -6.9038   16.9283 C   0  0  0  0  0  0  0  0  0  0  0  0
  1 21  4  0
  1 23  4  0
  2  5  1  0
  2 13  4  0
  2 16  4  0
  3  6  4  0
  3  7  4  0
  4 13  4  0
  4 19  4  0
  4 24  4  0
  6 23  4  0
  7 16  1  0
  7 21  4  0
  8 18  1  0
  9 20  4  0
  9 22  4  0
 10 17  1  0
 10 25  1  0
 11 16  4  0
 11 19  4  0
 12 15  4  0
 12 22  4  0
 14 24  4  0
 14 25  4  0
 15 17  4  0
 17 20  4  0
 18 23  1  0
 19 25  4  0
M  END
$$$$

 Created by Python create_sdf_string function

 25 28  0  0  0  0  0  0  0  0999 V2000
   13.1533   -5.2399   21.0682 C   0  0  0  0  0  0  0  0  0  0  0  0
   10.4729   -4.0295   17.6135 C   0  0  0  0  0  0  0  0  0  0  0  0
   10.4789   -4.3641   20.9564 C   0  0  0  0  0  0  0  0  0  0  0  0
    8.7421   -5.1412   16.3650 C   0  0  0  0  0  0  0  0  0  0  0  0
   11.4353   -2.9204   17.8044 C   0  0  0  0  0  0  0  0  0  0  0  0
   11.1529   -4.3028   22.1277 C   0  0  0  0  0  0  0  0  0  0  0  0
   11.1290   -4.8502   19.8052 C   0  0  0  0  0  0  0  0  0  0  0  0
   12.4329   -4.2159   24.4224 C   0  0  0  0  0  0  0  0  0  0  0  0
    3.4740   -9.0387   16.5022 C   0  0  0  0  0  0  0  0  0  0  0  0
    6.8384   -7.9290   17.5282 N   0  0  0  0  0  0  0  0  0  0  0  0
    9.4126   -5.9853   18.4899 C   0  0  0  0  0  0  0  0  0  0  0  0
    4.2064  -10.3242   18.3302 C   0  0  0  0  0  0  0  0  0  0  0  0
    9.6599   -4.1551   16.4796 N   0  0  0  0  0  0  0  0  0  0  0  0
    7.0644   -6.4612   15.7375 N   0  0  0  0  0  0  0  0  0  0  0  0
    5.3549   -9.6322   18.3190 C   0  0  0  0  0  0  0  0  0  0  0  0
   10.3704   -4.9638   18.6510 C   0  0  0  0  0  0  0  0  0  0  0  0
    5.5935   -8.6419   17.4234 C   0  0  0  0  0  0  0  0  0  0  0  0
   13.0726   -4.6648   23.3394 O   0  0  0  0  0  0  0  0  0  0  0  0
    8.5955   -6.0705   17.3996 C   0  0  0  0  0  0  0  0  0  0  0  0
    4.6223   -8.3832   16.5030 C   0  0  0  0  0  0  0  0  0  0  0  0
   12.4690   -5.2624   19.9024 C   0  0  0  0  0  0  0  0  0  0  0  0
    3.2548   -9.9919   17.4189 C   0  0  0  0  0  0  0  0  0  0  0  0
   12.4767   -4.7393   22.1790 C   0  0  0  0  0  0  0  0  0  0  0  0
    7.8593   -5.3772   15.3569 N   0  0  0  0  0  0  0  0  0  0  0  0
    7.4412   -6.9038   16.9283 C   0  0  0  0  0  0  0  0  0  0  0  0
  1 21  4  0
  1 23  4  0
  2  5  1  0
  2 13  4  0
  2 16  4  0
  3  6  4  0
  3  7  4  0
  4 13  4  0
  4 19  4  0
  4 24  4  0
  6 23  4  0
  7 16  1  0
  7 21  4  0
  8 18  1  0
  9 20  4  0
  9 22  4  0
 10 17  1  0
 10 25  1  0
 11 16  4  0
 11 19  4  0
 12 15  4  0
 12 22  4  0
 14 24  4  0
 14 25  4  0
 15 17  4  0
 17 20  4  0
 18 23  1  0
 19 25  4  0
M  END
$$$$

 Created by Python create_sdf_string function

 25 28  0  0  0  0  0  0  0  0999 V2000
   13.1533   -5.2399   21.0682 C   0  0  0  0  0  0  0  0  0  0  0  0
   10.4729   -4.0295   17.6135 C   0  0  0  0  0  0  0  0  0  0  0  0
   10.4789   -4.3641   20.9564 C   0  0  0  0  0  0  0  0  0  0  0  0
    8.7421   -5.1412   16.3650 C   0  0  0  0  0  0  0  0  0  0  0  0
   11.4353   -2.9204   17.8044 C   0  0  0  0  0  0  0  0  0  0  0  0
   11.1529   -4.3028   22.1277 C   0  0  0  0  0  0  0  0  0  0  0  0
   11.1290   -4.8502   19.8052 C   0  0  0  0  0  0  0  0  0  0  0  0
   12.4329   -4.2159   24.4224 C   0  0  0  0  0  0  0  0  0  0  0  0
    3.4740   -9.0387   16.5022 C   0  0  0  0  0  0  0  0  0  0  0  0
    6.8384   -7.9290   17.5282 N   0  0  0  0  0  0  0  0  0  0  0  0
    9.4126   -5.9853   18.4899 C   0  0  0  0  0  0  0  0  0  0  0  0
    4.2064  -10.3242   18.3302 C   0  0  0  0  0  0  0  0  0  0  0  0
    9.6599   -4.1551   16.4796 N   0  0  0  0  0  0  0  0  0  0  0  0
    7.0644   -6.4612   15.7375 N   0  0  0  0  0  0  0  0  0  0  0  0
    5.3549   -9.6322   18.3190 C   0  0  0  0  0  0  0  0  0  0  0  0
   10.3704   -4.9638   18.6510 C   0  0  0  0  0  0  0  0  0  0  0  0
    5.5935   -8.6419   17.4234 C   0  0  0  0  0  0  0  0  0  0  0  0
   13.0726   -4.6648   23.3394 O   0  0  0  0  0  0  0  0  0  0  0  0
    8.5955   -6.0705   17.3996 C   0  0  0  0  0  0  0  0  0  0  0  0
    4.6223   -8.3832   16.5030 C   0  0  0  0  0  0  0  0  0  0  0  0
   12.4690   -5.2624   19.9024 C   0  0  0  0  0  0  0  0  0  0  0  0
    3.2548   -9.9919   17.4189 C   0  0  0  0  0  0  0  0  0  0  0  0
   12.4767   -4.7393   22.1790 C   0  0  0  0  0  0  0  0  0  0  0  0
    7.8593   -5.3772   15.3569 N   0  0  0  0  0  0  0  0  0  0  0  0
    7.4412   -6.9038   16.9283 C   0  0  0  0  0  0  0  0  0  0  0  0
  1 21  4  0
  1 23  4  0
  2  5  1  0
  2 13  4  0
  2 16  4  0
  3  6  4  0
  3  7  4  0
  4 13  4  0
  4 19  4  0
  4 24  4  0
  6 23  4  0
  7 16  1  0
  7 21  4  0
  8 18  1  0
  9 20  4  0
  9 22  4  0
 10 17  1  0
 10 25  1  0
 11 16  4  0
 11 19  4  0
 12 15  4  0
 12 22  4  0
 14 24  4  0
 14 25  4  0
 15 17  4  0
 17 20  4  0
 18 23  1  0
 19 25  4  0
M  END
$$$$

 Created by Python create_sdf_string function

 25 28  0  0  0  0  0  0  0  0999 V2000
   13.1533   -5.2399   21.0682 C   0  0  0  0  0  0  0  0  0  0  0  0
   10.4729   -4.0295   17.6135 C   0  0  0  0  0  0  0  0  0  0  0  0
   10.4789   -4.3641   20.9564 C   0  0  0  0  0  0  0  0  0  0  0  0
    8.7421   -5.1412   16.3650 C   0  0  0  0  0  0  0  0  0  0  0  0
   11.4353   -2.9204   17.8044 C   0  0  0  0  0  0  0  0  0  0  0  0
   11.1529   -4.3028   22.1277 C   0  0  0  0  0  0  0  0  0  0  0  0
   11.1290   -4.8502   19.8052 C   0  0  0  0  0  0  0  0  0  0  0  0
   12.4329   -4.2159   24.4224 C   0  0  0  0  0  0  0  0  0  0  0  0
    3.4740   -9.0387   16.5022 C   0  0  0  0  0  0  0  0  0  0  0  0
    6.8384   -7.9290   17.5282 N   0  0  0  0  0  0  0  0  0  0  0  0
    9.4126   -5.9853   18.4899 C   0  0  0  0  0  0  0  0  0  0  0  0
    4.2064  -10.3242   18.3302 C   0  0  0  0  0  0  0  0  0  0  0  0
    9.6599   -4.1551   16.4796 N   0  0  0  0  0  0  0  0  0  0  0  0
    7.0644   -6.4612   15.7375 N   0  0  0  0  0  0  0  0  0  0  0  0
    5.3549   -9.6322   18.3190 C   0  0  0  0  0  0  0  0  0  0  0  0
   10.3704   -4.9638   18.6510 C   0  0  0  0  0  0  0  0  0  0  0  0
    5.5935   -8.6419   17.4234 C   0  0  0  0  0  0  0  0  0  0  0  0
   13.0726   -4.6648   23.3394 O   0  0  0  0  0  0  0  0  0  0  0  0
    8.5955   -6.0705   17.3996 C   0  0  0  0  0  0  0  0  0  0  0  0
    4.6223   -8.3832   16.5030 C   0  0  0  0  0  0  0  0  0  0  0  0
   12.4690   -5.2624   19.9024 C   0  0  0  0  0  0  0  0  0  0  0  0
    3.2548   -9.9919   17.4189 C   0  0  0  0  0  0  0  0  0  0  0  0
   12.4767   -4.7393   22.1790 C   0  0  0  0  0  0  0  0  0  0  0  0
    7.8593   -5.3772   15.3569 N   0  0  0  0  0  0  0  0  0  0  0  0
    7.4412   -6.9038   16.9283 C   0  0  0  0  0  0  0  0  0  0  0  0
  1 21  4  0
  1 23  4  0
  2  5  1  0
  2 13  4  0
  2 16  4  0
  3  6  4  0
  3  7  4  0
  4 13  4  0
  4 19  4  0
  4 24  4  0
  6 23  4  0
  7 16  1  0
  7 21  4  0
  8 18  1  0
  9 20  4  0
  9 22  4  0
 10 17  1  0
 10 25  1  0
 11 16  4  0
 11 19  4  0
 12 15  4  0
 12 22  4  0
 14 24  4  0
 14 25  4  0
 15 17  4  0
 17 20  4  0
 18 23  1  0
 19 25  4  0
M  END
$$$$

 Created by Python create_sdf_string function

 25 28  0  0  0  0  0  0  0  0999 V2000
   13.1533   -5.2399   21.0682 C   0  0  0  0  0  0  0  0  0  0  0  0
   10.4729   -4.0295   17.6135 C   0  0  0  0  0  0  0  0  0  0  0  0
   10.4789   -4.3641   20.9564 C   0  0  0  0  0  0  0  0  0  0  0  0
    8.7421   -5.1412   16.3650 C   0  0  0  0  0  0  0  0  0  0  0  0
   11.4353   -2.9204   17.8044 C   0  0  0  0  0  0  0  0  0  0  0  0
   11.1529   -4.3028   22.1277 C   0  0  0  0  0  0  0  0  0  0  0  0
   11.1290   -4.8502   19.8052 C   0  0  0  0  0  0  0  0  0  0  0  0
   12.4329   -4.2159   24.4224 C   0  0  0  0  0  0  0  0  0  0  0  0
    3.4740   -9.0387   16.5022 C   0  0  0  0  0  0  0  0  0  0  0  0
    6.8384   -7.9290   17.5282 N   0  0  0  0  0  0  0  0  0  0  0  0
    9.4126   -5.9853   18.4899 C   0  0  0  0  0  0  0  0  0  0  0  0
    4.2064  -10.3242   18.3302 C   0  0  0  0  0  0  0  0  0  0  0  0
    9.6599   -4.1551   16.4796 N   0  0  0  0  0  0  0  0  0  0  0  0
    7.0644   -6.4612   15.7375 N   0  0  0  0  0  0  0  0  0  0  0  0
    5.3549   -9.6322   18.3190 C   0  0  0  0  0  0  0  0  0  0  0  0
   10.3704   -4.9638   18.6510 C   0  0  0  0  0  0  0  0  0  0  0  0
    5.5935   -8.6419   17.4234 C   0  0  0  0  0  0  0  0  0  0  0  0
   13.0726   -4.6648   23.3394 O   0  0  0  0  0  0  0  0  0  0  0  0
    8.5955   -6.0705   17.3996 C   0  0  0  0  0  0  0  0  0  0  0  0
    4.6223   -8.3832   16.5030 C   0  0  0  0  0  0  0  0  0  0  0  0
   12.4690   -5.2624   19.9024 C   0  0  0  0  0  0  0  0  0  0  0  0
    3.2548   -9.9919   17.4189 C   0  0  0  0  0  0  0  0  0  0  0  0
   12.4767   -4.7393   22.1790 C   0  0  0  0  0  0  0  0  0  0  0  0
    7.8593   -5.3772   15.3569 N   0  0  0  0  0  0  0  0  0  0  0  0
    7.4412   -6.9038   16.9283 C   0  0  0  0  0  0  0  0  0  0  0  0
  1 21  4  0
  1 23  4  0
  2  5  1  0
  2 13  4  0
  2 16  4  0
  3  6  4  0
  3  7  4  0
  4 13  4  0
  4 19  4  0
  4 24  4  0
  6 23  4  0
  7 16  1  0
  7 21  4  0
  8 18  1  0
  9 20  4  0
  9 22  4  0
 10 17  1  0
 10 25  1  0
 11 16  4  0
 11 19  4  0
 12 15  4  0
 12 22  4  0
 14 24  4  0
 14 25  4  0
 15 17  4  0
 17 20  4  0
 18 23  1  0
 19 25  4  0
M  END
$$$$

 Created by Python create_sdf_string function

 25 28  0  0  0  0  0  0  0  0999 V2000
   13.1533   -5.2399   21.0682 C   0  0  0  0  0  0  0  0  0  0  0  0
   10.4729   -4.0295   17.6135 C   0  0  0  0  0  0  0  0  0  0  0  0
   10.4789   -4.3641   20.9564 C   0  0  0  0  0  0  0  0  0  0  0  0
    8.7421   -5.1412   16.3650 C   0  0  0  0  0  0  0  0  0  0  0  0
   11.4353   -2.9204   17.8044 C   0  0  0  0  0  0  0  0  0  0  0  0
   11.1529   -4.3028   22.1277 C   0  0  0  0  0  0  0  0  0  0  0  0
   11.1290   -4.8502   19.8052 C   0  0  0  0  0  0  0  0  0  0  0  0
   12.4329   -4.2159   24.4224 C   0  0  0  0  0  0  0  0  0  0  0  0
    3.4740   -9.0387   16.5022 C   0  0  0  0  0  0  0  0  0  0  0  0
    6.8384   -7.9290   17.5282 N   0  0  0  0  0  0  0  0  0  0  0  0
    9.4126   -5.9853   18.4899 C   0  0  0  0  0  0  0  0  0  0  0  0
    4.2064  -10.3242   18.3302 C   0  0  0  0  0  0  0  0  0  0  0  0
    9.6599   -4.1551   16.4796 N   0  0  0  0  0  0  0  0  0  0  0  0
    7.0644   -6.4612   15.7375 N   0  0  0  0  0  0  0  0  0  0  0  0
    5.3549   -9.6322   18.3190 C   0  0  0  0  0  0  0  0  0  0  0  0
   10.3704   -4.9638   18.6510 C   0  0  0  0  0  0  0  0  0  0  0  0
    5.5935   -8.6419   17.4234 C   0  0  0  0  0  0  0  0  0  0  0  0
   13.0726   -4.6648   23.3394 O   0  0  0  0  0  0  0  0  0  0  0  0
    8.5955   -6.0705   17.3996 C   0  0  0  0  0  0  0  0  0  0  0  0
    4.6223   -8.3832   16.5030 C   0  0  0  0  0  0  0  0  0  0  0  0
   12.4690   -5.2624   19.9024 C   0  0  0  0  0  0  0  0  0  0  0  0
    3.2548   -9.9919   17.4189 C   0  0  0  0  0  0  0  0  0  0  0  0
   12.4767   -4.7393   22.1790 C   0  0  0  0  0  0  0  0  0  0  0  0
    7.8593   -5.3772   15.3569 N   0  0  0  0  0  0  0  0  0  0  0  0
    7.4412   -6.9038   16.9283 C   0  0  0  0  0  0  0  0  0  0  0  0
  1 21  4  0
  1 23  4  0
  2  5  1  0
  2 13  4  0
  2 16  4  0
  3  6  4  0
  3  7  4  0
  4 13  4  0
  4 19  4  0
  4 24  4  0
  6 23  4  0
  7 16  1  0
  7 21  4  0
  8 18  1  0
  9 20  4  0
  9 22  4  0
 10 17  1  0
 10 25  1  0
 11 16  4  0
 11 19  4  0
 12 15  4  0
 12 22  4  0
 14 24  4  0
 14 25  4  0
 15 17  4  0
 17 20  4  0
 18 23  1  0
 19 25  4  0
M  END
$$$$

 Created by Python create_sdf_string function

 25 28  0  0  0  0  0  0  0  0999 V2000
   13.1533   -5.2399   21.0682 C   0  0  0  0  0  0  0  0  0  0  0  0
   10.4729   -4.0295   17.6135 C   0  0  0  0  0  0  0  0  0  0  0  0
   10.4789   -4.3641   20.9564 C   0  0  0  0  0  0  0  0  0  0  0  0
    8.7421   -5.1412   16.3650 C   0  0  0  0  0  0  0  0  0  0  0  0
   11.4353   -2.9204   17.8044 C   0  0  0  0  0  0  0  0  0  0  0  0
   11.1529   -4.3028   22.1277 C   0  0  0  0  0  0  0  0  0  0  0  0
   11.1290   -4.8502   19.8052 C   0  0  0  0  0  0  0  0  0  0  0  0
   12.4329   -4.2159   24.4224 C   0  0  0  0  0  0  0  0  0  0  0  0
    3.4740   -9.0387   16.5022 C   0  0  0  0  0  0  0  0  0  0  0  0
    6.8384   -7.9290   17.5282 N   0  0  0  0  0  0  0  0  0  0  0  0
    9.4126   -5.9853   18.4899 C   0  0  0  0  0  0  0  0  0  0  0  0
    4.2064  -10.3242   18.3302 C   0  0  0  0  0  0  0  0  0  0  0  0
    9.6599   -4.1551   16.4796 N   0  0  0  0  0  0  0  0  0  0  0  0
    7.0644   -6.4612   15.7375 N   0  0  0  0  0  0  0  0  0  0  0  0
    5.3549   -9.6322   18.3190 C   0  0  0  0  0  0  0  0  0  0  0  0
   10.3704   -4.9638   18.6510 C   0  0  0  0  0  0  0  0  0  0  0  0
    5.5935   -8.6419   17.4234 C   0  0  0  0  0  0  0  0  0  0  0  0
   13.0726   -4.6648   23.3394 O   0  0  0  0  0  0  0  0  0  0  0  0
    8.5955   -6.0705   17.3996 C   0  0  0  0  0  0  0  0  0  0  0  0
    4.6223   -8.3832   16.5030 C   0  0  0  0  0  0  0  0  0  0  0  0
   12.4690   -5.2624   19.9024 C   0  0  0  0  0  0  0  0  0  0  0  0
    3.2548   -9.9919   17.4189 C   0  0  0  0  0  0  0  0  0  0  0  0
   12.4767   -4.7393   22.1790 C   0  0  0  0  0  0  0  0  0  0  0  0
    7.8593   -5.3772   15.3569 N   0  0  0  0  0  0  0  0  0  0  0  0
    7.4412   -6.9038   16.9283 C   0  0  0  0  0  0  0  0  0  0  0  0
  1 21  4  0
  1 23  4  0
  2  5  1  0
  2 13  4  0
  2 16  4  0
  3  6  4  0
  3  7  4  0
  4 13  4  0
  4 19  4  0
  4 24  4  0
  6 23  4  0
  7 16  1  0
  7 21  4  0
  8 18  1  0
  9 20  4  0
  9 22  4  0
 10 17  1  0
 10 25  1  0
 11 16  4  0
 11 19  4  0
 12 15  4  0
 12 22  4  0
 14 24  4  0
 14 25  4  0
 15 17  4  0
 17 20  4  0
 18 23  1  0
 19 25  4  0
M  END
$$$$

 Created by Python create_sdf_string function

 25 28  0  0  0  0  0  0  0  0999 V2000
   13.1533   -5.2399   21.0682 C   0  0  0  0  0  0  0  0  0  0  0  0
   10.4729   -4.0295   17.6135 C   0  0  0  0  0  0  0  0  0  0  0  0
   10.4789   -4.3641   20.9564 C   0  0  0  0  0  0  0  0  0  0  0  0
    8.7421   -5.1412   16.3650 C   0  0  0  0  0  0  0  0  0  0  0  0
   11.4353   -2.9204   17.8044 C   0  0  0  0  0  0  0  0  0  0  0  0
   11.1529   -4.3028   22.1277 C   0  0  0  0  0  0  0  0  0  0  0  0
   11.1290   -4.8502   19.8052 C   0  0  0  0  0  0  0  0  0  0  0  0
   12.4329   -4.2159   24.4224 C   0  0  0  0  0  0  0  0  0  0  0  0
    3.4740   -9.0387   16.5022 C   0  0  0  0  0  0  0  0  0  0  0  0
    6.8384   -7.9290   17.5282 N   0  0  0  0  0  0  0  0  0  0  0  0
    9.4126   -5.9853   18.4899 C   0  0  0  0  0  0  0  0  0  0  0  0
    4.2064  -10.3242   18.3302 C   0  0  0  0  0  0  0  0  0  0  0  0
    9.6599   -4.1551   16.4796 N   0  0  0  0  0  0  0  0  0  0  0  0
    7.0644   -6.4612   15.7375 N   0  0  0  0  0  0  0  0  0  0  0  0
    5.3549   -9.6322   18.3190 C   0  0  0  0  0  0  0  0  0  0  0  0
   10.3704   -4.9638   18.6510 C   0  0  0  0  0  0  0  0  0  0  0  0
    5.5935   -8.6419   17.4234 C   0  0  0  0  0  0  0  0  0  0  0  0
   13.0726   -4.6648   23.3394 O   0  0  0  0  0  0  0  0  0  0  0  0
    8.5955   -6.0705   17.3996 C   0  0  0  0  0  0  0  0  0  0  0  0
    4.6223   -8.3832   16.5030 C   0  0  0  0  0  0  0  0  0  0  0  0
   12.4690   -5.2624   19.9024 C   0  0  0  0  0  0  0  0  0  0  0  0
    3.2548   -9.9919   17.4189 C   0  0  0  0  0  0  0  0  0  0  0  0
   12.4767   -4.7393   22.1790 C   0  0  0  0  0  0  0  0  0  0  0  0
    7.8593   -5.3772   15.3569 N   0  0  0  0  0  0  0  0  0  0  0  0
    7.4412   -6.9038   16.9283 C   0  0  0  0  0  0  0  0  0  0  0  0
  1 21  4  0
  1 23  4  0
  2  5  1  0
  2 13  4  0
  2 16  4  0
  3  6  4  0
  3  7  4  0
  4 13  4  0
  4 19  4  0
  4 24  4  0
  6 23  4  0
  7 16  1  0
  7 21  4  0
  8 18  1  0
  9 20  4  0
  9 22  4  0
 10 17  1  0
 10 25  1  0
 11 16  4  0
 11 19  4  0
 12 15  4  0
 12 22  4  0
 14 24  4  0
 14 25  4  0
 15 17  4  0
 17 20  4  0
 18 23  1  0
 19 25  4  0
M  END
$$$$

 Created by Python create_sdf_string function

 25 28  0  0  0  0  0  0  0  0999 V2000
   13.1533   -5.2399   21.0682 C   0  0  0  0  0  0  0  0  0  0  0  0
   10.4729   -4.0295   17.6135 C   0  0  0  0  0  0  0  0  0  0  0  0
   10.4789   -4.3641   20.9564 C   0  0  0  0  0  0  0  0  0  0  0  0
    8.7421   -5.1412   16.3650 C   0  0  0  0  0  0  0  0  0  0  0  0
   11.4353   -2.9204   17.8044 C   0  0  0  0  0  0  0  0  0  0  0  0
   11.1529   -4.3028   22.1277 C   0  0  0  0  0  0  0  0  0  0  0  0
   11.1290   -4.8502   19.8052 C   0  0  0  0  0  0  0  0  0  0  0  0
   12.4329   -4.2159   24.4224 C   0  0  0  0  0  0  0  0  0  0  0  0
    3.4740   -9.0387   16.5022 C   0  0  0  0  0  0  0  0  0  0  0  0
    6.8384   -7.9290   17.5282 N   0  0  0  0  0  0  0  0  0  0  0  0
    9.4126   -5.9853   18.4899 C   0  0  0  0  0  0  0  0  0  0  0  0
    4.2064  -10.3242   18.3302 C   0  0  0  0  0  0  0  0  0  0  0  0
    9.6599   -4.1551   16.4796 N   0  0  0  0  0  0  0  0  0  0  0  0
    7.0644   -6.4612   15.7375 N   0  0  0  0  0  0  0  0  0  0  0  0
    5.3549   -9.6322   18.3190 C   0  0  0  0  0  0  0  0  0  0  0  0
   10.3704   -4.9638   18.6510 C   0  0  0  0  0  0  0  0  0  0  0  0
    5.5935   -8.6419   17.4234 C   0  0  0  0  0  0  0  0  0  0  0  0
   13.0726   -4.6648   23.3394 O   0  0  0  0  0  0  0  0  0  0  0  0
    8.5955   -6.0705   17.3996 C   0  0  0  0  0  0  0  0  0  0  0  0
    4.6223   -8.3832   16.5030 C   0  0  0  0  0  0  0  0  0  0  0  0
   12.4690   -5.2624   19.9024 C   0  0  0  0  0  0  0  0  0  0  0  0
    3.2548   -9.9919   17.4189 C   0  0  0  0  0  0  0  0  0  0  0  0
   12.4767   -4.7393   22.1790 C   0  0  0  0  0  0  0  0  0  0  0  0
    7.8593   -5.3772   15.3569 N   0  0  0  0  0  0  0  0  0  0  0  0
    7.4412   -6.9038   16.9283 C   0  0  0  0  0  0  0  0  0  0  0  0
  1 21  4  0
  1 23  4  0
  2  5  1  0
  2 13  4  0
  2 16  4  0
  3  6  4  0
  3  7  4  0
  4 13  4  0
  4 19  4  0
  4 24  4  0
  6 23  4  0
  7 16  1  0
  7 21  4  0
  8 18  1  0
  9 20  4  0
  9 22  4  0
 10 17  1  0
 10 25  1  0
 11 16  4  0
 11 19  4  0
 12 15  4  0
 12 22  4  0
 14 24  4  0
 14 25  4  0
 15 17  4  0
 17 20  4  0
 18 23  1  0
 19 25  4  0
M  END
$$$$

 Created by Python create_sdf_string function

 25 28  0  0  0  0  0  0  0  0999 V2000
   13.1533   -5.2399   21.0682 C   0  0  0  0  0  0  0  0  0  0  0  0
   10.4729   -4.0295   17.6135 C   0  0  0  0  0  0  0  0  0  0  0  0
   10.4789   -4.3641   20.9564 C   0  0  0  0  0  0  0  0  0  0  0  0
    8.7421   -5.1412   16.3650 C   0  0  0  0  0  0  0  0  0  0  0  0
   11.4353   -2.9204   17.8044 C   0  0  0  0  0  0  0  0  0  0  0  0
   11.1529   -4.3028   22.1277 C   0  0  0  0  0  0  0  0  0  0  0  0
   11.1290   -4.8502   19.8052 C   0  0  0  0  0  0  0  0  0  0  0  0
   12.4329   -4.2159   24.4224 C   0  0  0  0  0  0  0  0  0  0  0  0
    3.4740   -9.0387   16.5022 C   0  0  0  0  0  0  0  0  0  0  0  0
    6.8384   -7.9290   17.5282 N   0  0  0  0  0  0  0  0  0  0  0  0
    9.4126   -5.9853   18.4899 C   0  0  0  0  0  0  0  0  0  0  0  0
    4.2064  -10.3242   18.3302 C   0  0  0  0  0  0  0  0  0  0  0  0
    9.6599   -4.1551   16.4796 N   0  0  0  0  0  0  0  0  0  0  0  0
    7.0644   -6.4612   15.7375 N   0  0  0  0  0  0  0  0  0  0  0  0
    5.3549   -9.6322   18.3190 C   0  0  0  0  0  0  0  0  0  0  0  0
   10.3704   -4.9638   18.6510 C   0  0  0  0  0  0  0  0  0  0  0  0
    5.5935   -8.6419   17.4234 C   0  0  0  0  0  0  0  0  0  0  0  0
   13.0726   -4.6648   23.3394 O   0  0  0  0  0  0  0  0  0  0  0  0
    8.5955   -6.0705   17.3996 C   0  0  0  0  0  0  0  0  0  0  0  0
    4.6223   -8.3832   16.5030 C   0  0  0  0  0  0  0  0  0  0  0  0
   12.4690   -5.2624   19.9024 C   0  0  0  0  0  0  0  0  0  0  0  0
    3.2548   -9.9919   17.4189 C   0  0  0  0  0  0  0  0  0  0  0  0
   12.4767   -4.7393   22.1790 C   0  0  0  0  0  0  0  0  0  0  0  0
    7.8593   -5.3772   15.3569 N   0  0  0  0  0  0  0  0  0  0  0  0
    7.4412   -6.9038   16.9283 C   0  0  0  0  0  0  0  0  0  0  0  0
  1 21  4  0
  1 23  4  0
  2  5  1  0
  2 13  4  0
  2 16  4  0
  3  6  4  0
  3  7  4  0
  4 13  4  0
  4 19  4  0
  4 24  4  0
  6 23  4  0
  7 16  1  0
  7 21  4  0
  8 18  1  0
  9 20  4  0
  9 22  4  0
 10 17  1  0
 10 25  1  0
 11 16  4  0
 11 19  4  0
 12 15  4  0
 12 22  4  0
 14 24  4  0
 14 25  4  0
 15 17  4  0
 17 20  4  0
 18 23  1  0
 19 25  4  0
M  END
$$$$

 Created by Python create_sdf_string function

 25 28  0  0  0  0  0  0  0  0999 V2000
   13.1533   -5.2399   21.0682 C   0  0  0  0  0  0  0  0  0  0  0  0
   10.4729   -4.0295   17.6135 C   0  0  0  0  0  0  0  0  0  0  0  0
   10.4789   -4.3641   20.9564 C   0  0  0  0  0  0  0  0  0  0  0  0
    8.7421   -5.1412   16.3650 C   0  0  0  0  0  0  0  0  0  0  0  0
   11.4353   -2.9204   17.8044 C   0  0  0  0  0  0  0  0  0  0  0  0
   11.1529   -4.3028   22.1277 C   0  0  0  0  0  0  0  0  0  0  0  0
   11.1290   -4.8502   19.8052 C   0  0  0  0  0  0  0  0  0  0  0  0
   12.4329   -4.2159   24.4224 C   0  0  0  0  0  0  0  0  0  0  0  0
    3.4740   -9.0387   16.5022 C   0  0  0  0  0  0  0  0  0  0  0  0
    6.8384   -7.9290   17.5282 N   0  0  0  0  0  0  0  0  0  0  0  0
    9.4126   -5.9853   18.4899 C   0  0  0  0  0  0  0  0  0  0  0  0
    4.2064  -10.3242   18.3302 C   0  0  0  0  0  0  0  0  0  0  0  0
    9.6599   -4.1551   16.4796 N   0  0  0  0  0  0  0  0  0  0  0  0
    7.0644   -6.4612   15.7375 N   0  0  0  0  0  0  0  0  0  0  0  0
    5.3549   -9.6322   18.3190 C   0  0  0  0  0  0  0  0  0  0  0  0
   10.3704   -4.9638   18.6510 C   0  0  0  0  0  0  0  0  0  0  0  0
    5.5935   -8.6419   17.4234 C   0  0  0  0  0  0  0  0  0  0  0  0
   13.0726   -4.6648   23.3394 O   0  0  0  0  0  0  0  0  0  0  0  0
    8.5955   -6.0705   17.3996 C   0  0  0  0  0  0  0  0  0  0  0  0
    4.6223   -8.3832   16.5030 C   0  0  0  0  0  0  0  0  0  0  0  0
   12.4690   -5.2624   19.9024 C   0  0  0  0  0  0  0  0  0  0  0  0
    3.2548   -9.9919   17.4189 C   0  0  0  0  0  0  0  0  0  0  0  0
   12.4767   -4.7393   22.1790 C   0  0  0  0  0  0  0  0  0  0  0  0
    7.8593   -5.3772   15.3569 N   0  0  0  0  0  0  0  0  0  0  0  0
    7.4412   -6.9038   16.9283 C   0  0  0  0  0  0  0  0  0  0  0  0
  1 21  4  0
  1 23  4  0
  2  5  1  0
  2 13  4  0
  2 16  4  0
  3  6  4  0
  3  7  4  0
  4 13  4  0
  4 19  4  0
  4 24  4  0
  6 23  4  0
  7 16  1  0
  7 21  4  0
  8 18  1  0
  9 20  4  0
  9 22  4  0
 10 17  1  0
 10 25  1  0
 11 16  4  0
 11 19  4  0
 12 15  4  0
 12 22  4  0
 14 24  4  0
 14 25  4  0
 15 17  4  0
 17 20  4  0
 18 23  1  0
 19 25  4  0
M  END
$$$$

 Created by Python create_sdf_string function

 25 28  0  0  0  0  0  0  0  0999 V2000
   13.1533   -5.2399   21.0682 C   0  0  0  0  0  0  0  0  0  0  0  0
   10.4729   -4.0295   17.6135 C   0  0  0  0  0  0  0  0  0  0  0  0
   10.4789   -4.3641   20.9564 C   0  0  0  0  0  0  0  0  0  0  0  0
    8.7421   -5.1412   16.3650 C   0  0  0  0  0  0  0  0  0  0  0  0
   11.4353   -2.9204   17.8044 C   0  0  0  0  0  0  0  0  0  0  0  0
   11.1529   -4.3028   22.1277 C   0  0  0  0  0  0  0  0  0  0  0  0
   11.1290   -4.8502   19.8052 C   0  0  0  0  0  0  0  0  0  0  0  0
   12.4329   -4.2159   24.4224 C   0  0  0  0  0  0  0  0  0  0  0  0
    3.4740   -9.0387   16.5022 C   0  0  0  0  0  0  0  0  0  0  0  0
    6.8384   -7.9290   17.5282 N   0  0  0  0  0  0  0  0  0  0  0  0
    9.4126   -5.9853   18.4899 C   0  0  0  0  0  0  0  0  0  0  0  0
    4.2064  -10.3242   18.3302 C   0  0  0  0  0  0  0  0  0  0  0  0
    9.6599   -4.1551   16.4796 N   0  0  0  0  0  0  0  0  0  0  0  0
    7.0644   -6.4612   15.7375 N   0  0  0  0  0  0  0  0  0  0  0  0
    5.3549   -9.6322   18.3190 C   0  0  0  0  0  0  0  0  0  0  0  0
   10.3704   -4.9638   18.6510 C   0  0  0  0  0  0  0  0  0  0  0  0
    5.5935   -8.6419   17.4234 C   0  0  0  0  0  0  0  0  0  0  0  0
   13.0726   -4.6648   23.3394 O   0  0  0  0  0  0  0  0  0  0  0  0
    8.5955   -6.0705   17.3996 C   0  0  0  0  0  0  0  0  0  0  0  0
    4.6223   -8.3832   16.5030 C   0  0  0  0  0  0  0  0  0  0  0  0
   12.4690   -5.2624   19.9024 C   0  0  0  0  0  0  0  0  0  0  0  0
    3.2548   -9.9919   17.4189 C   0  0  0  0  0  0  0  0  0  0  0  0
   12.4767   -4.7393   22.1790 C   0  0  0  0  0  0  0  0  0  0  0  0
    7.8593   -5.3772   15.3569 N   0  0  0  0  0  0  0  0  0  0  0  0
    7.4412   -6.9038   16.9283 C   0  0  0  0  0  0  0  0  0  0  0  0
  1 21  4  0
  1 23  4  0
  2  5  1  0
  2 13  4  0
  2 16  4  0
  3  6  4  0
  3  7  4  0
  4 13  4  0
  4 19  4  0
  4 24  4  0
  6 23  4  0
  7 16  1  0
  7 21  4  0
  8 18  1  0
  9 20  4  0
  9 22  4  0
 10 17  1  0
 10 25  1  0
 11 16  4  0
 11 19  4  0
 12 15  4  0
 12 22  4  0
 14 24  4  0
 14 25  4  0
 15 17  4  0
 17 20  4  0
 18 23  1  0
 19 25  4  0
M  END
$$$$

 Created by Python create_sdf_string function

 25 28  0  0  0  0  0  0  0  0999 V2000
   13.1533   -5.2399   21.0682 C   0  0  0  0  0  0  0  0  0  0  0  0
   10.4729   -4.0295   17.6135 C   0  0  0  0  0  0  0  0  0  0  0  0
   10.4789   -4.3641   20.9564 C   0  0  0  0  0  0  0  0  0  0  0  0
    8.7421   -5.1412   16.3650 C   0  0  0  0  0  0  0  0  0  0  0  0
   11.4353   -2.9204   17.8044 C   0  0  0  0  0  0  0  0  0  0  0  0
   11.1529   -4.3028   22.1277 C   0  0  0  0  0  0  0  0  0  0  0  0
   11.1290   -4.8502   19.8052 C   0  0  0  0  0  0  0  0  0  0  0  0
   12.4329   -4.2159   24.4224 C   0  0  0  0  0  0  0  0  0  0  0  0
    3.4740   -9.0387   16.5022 C   0  0  0  0  0  0  0  0  0  0  0  0
    6.8384   -7.9290   17.5282 N   0  0  0  0  0  0  0  0  0  0  0  0
    9.4126   -5.9853   18.4899 C   0  0  0  0  0  0  0  0  0  0  0  0
    4.2064  -10.3242   18.3302 C   0  0  0  0  0  0  0  0  0  0  0  0
    9.6599   -4.1551   16.4796 N   0  0  0  0  0  0  0  0  0  0  0  0
    7.0644   -6.4612   15.7375 N   0  0  0  0  0  0  0  0  0  0  0  0
    5.3549   -9.6322   18.3190 C   0  0  0  0  0  0  0  0  0  0  0  0
   10.3704   -4.9638   18.6510 C   0  0  0  0  0  0  0  0  0  0  0  0
    5.5935   -8.6419   17.4234 C   0  0  0  0  0  0  0  0  0  0  0  0
   13.0726   -4.6648   23.3394 O   0  0  0  0  0  0  0  0  0  0  0  0
    8.5955   -6.0705   17.3996 C   0  0  0  0  0  0  0  0  0  0  0  0
    4.6223   -8.3832   16.5030 C   0  0  0  0  0  0  0  0  0  0  0  0
   12.4690   -5.2624   19.9024 C   0  0  0  0  0  0  0  0  0  0  0  0
    3.2548   -9.9919   17.4189 C   0  0  0  0  0  0  0  0  0  0  0  0
   12.4767   -4.7393   22.1790 C   0  0  0  0  0  0  0  0  0  0  0  0
    7.8593   -5.3772   15.3569 N   0  0  0  0  0  0  0  0  0  0  0  0
    7.4412   -6.9038   16.9283 C   0  0  0  0  0  0  0  0  0  0  0  0
  1 21  4  0
  1 23  4  0
  2  5  1  0
  2 13  4  0
  2 16  4  0
  3  6  4  0
  3  7  4  0
  4 13  4  0
  4 19  4  0
  4 24  4  0
  6 23  4  0
  7 16  1  0
  7 21  4  0
  8 18  1  0
  9 20  4  0
  9 22  4  0
 10 17  1  0
 10 25  1  0
 11 16  4  0
 11 19  4  0
 12 15  4  0
 12 22  4  0
 14 24  4  0
 14 25  4  0
 15 17  4  0
 17 20  4  0
 18 23  1  0
 19 25  4  0
M  END
$$$$

 Created by Python create_sdf_string function

 25 28  0  0  0  0  0  0  0  0999 V2000
   13.1533   -5.2399   21.0682 C   0  0  0  0  0  0  0  0  0  0  0  0
   10.4729   -4.0295   17.6135 C   0  0  0  0  0  0  0  0  0  0  0  0
   10.4789   -4.3641   20.9564 C   0  0  0  0  0  0  0  0  0  0  0  0
    8.7421   -5.1412   16.3650 C   0  0  0  0  0  0  0  0  0  0  0  0
   11.4353   -2.9204   17.8044 C   0  0  0  0  0  0  0  0  0  0  0  0
   11.1529   -4.3028   22.1277 C   0  0  0  0  0  0  0  0  0  0  0  0
   11.1290   -4.8502   19.8052 C   0  0  0  0  0  0  0  0  0  0  0  0
   12.4329   -4.2159   24.4224 C   0  0  0  0  0  0  0  0  0  0  0  0
    3.4740   -9.0387   16.5022 C   0  0  0  0  0  0  0  0  0  0  0  0
    6.8384   -7.9290   17.5282 N   0  0  0  0  0  0  0  0  0  0  0  0
    9.4126   -5.9853   18.4899 C   0  0  0  0  0  0  0  0  0  0  0  0
    4.2064  -10.3242   18.3302 C   0  0  0  0  0  0  0  0  0  0  0  0
    9.6599   -4.1551   16.4796 N   0  0  0  0  0  0  0  0  0  0  0  0
    7.0644   -6.4612   15.7375 N   0  0  0  0  0  0  0  0  0  0  0  0
    5.3549   -9.6322   18.3190 C   0  0  0  0  0  0  0  0  0  0  0  0
   10.3704   -4.9638   18.6510 C   0  0  0  0  0  0  0  0  0  0  0  0
    5.5935   -8.6419   17.4234 C   0  0  0  0  0  0  0  0  0  0  0  0
   13.0726   -4.6648   23.3394 O   0  0  0  0  0  0  0  0  0  0  0  0
    8.5955   -6.0705   17.3996 C   0  0  0  0  0  0  0  0  0  0  0  0
    4.6223   -8.3832   16.5030 C   0  0  0  0  0  0  0  0  0  0  0  0
   12.4690   -5.2624   19.9024 C   0  0  0  0  0  0  0  0  0  0  0  0
    3.2548   -9.9919   17.4189 C   0  0  0  0  0  0  0  0  0  0  0  0
   12.4767   -4.7393   22.1790 C   0  0  0  0  0  0  0  0  0  0  0  0
    7.8593   -5.3772   15.3569 N   0  0  0  0  0  0  0  0  0  0  0  0
    7.4412   -6.9038   16.9283 C   0  0  0  0  0  0  0  0  0  0  0  0
  1 21  4  0
  1 23  4  0
  2  5  1  0
  2 13  4  0
  2 16  4  0
  3  6  4  0
  3  7  4  0
  4 13  4  0
  4 19  4  0
  4 24  4  0
  6 23  4  0
  7 16  1  0
  7 21  4  0
  8 18  1  0
  9 20  4  0
  9 22  4  0
 10 17  1  0
 10 25  1  0
 11 16  4  0
 11 19  4  0
 12 15  4  0
 12 22  4  0
 14 24  4  0
 14 25  4  0
 15 17  4  0
 17 20  4  0
 18 23  1  0
 19 25  4  0
M  END
$$$$

 Created by Python create_sdf_string function

 25 28  0  0  0  0  0  0  0  0999 V2000
   13.1533   -5.2399   21.0682 C   0  0  0  0  0  0  0  0  0  0  0  0
   10.4729   -4.0295   17.6135 C   0  0  0  0  0  0  0  0  0  0  0  0
   10.4789   -4.3641   20.9564 C   0  0  0  0  0  0  0  0  0  0  0  0
    8.7421   -5.1412   16.3650 C   0  0  0  0  0  0  0  0  0  0  0  0
   11.4353   -2.9204   17.8044 C   0  0  0  0  0  0  0  0  0  0  0  0
   11.1529   -4.3028   22.1277 C   0  0  0  0  0  0  0  0  0  0  0  0
   11.1290   -4.8502   19.8052 C   0  0  0  0  0  0  0  0  0  0  0  0
   12.4329   -4.2159   24.4224 C   0  0  0  0  0  0  0  0  0  0  0  0
    3.4740   -9.0387   16.5022 C   0  0  0  0  0  0  0  0  0  0  0  0
    6.8384   -7.9290   17.5282 N   0  0  0  0  0  0  0  0  0  0  0  0
    9.4126   -5.9853   18.4899 C   0  0  0  0  0  0  0  0  0  0  0  0
    4.2064  -10.3242   18.3302 C   0  0  0  0  0  0  0  0  0  0  0  0
    9.6599   -4.1551   16.4796 N   0  0  0  0  0  0  0  0  0  0  0  0
    7.0644   -6.4612   15.7375 N   0  0  0  0  0  0  0  0  0  0  0  0
    5.3549   -9.6322   18.3190 C   0  0  0  0  0  0  0  0  0  0  0  0
   10.3704   -4.9638   18.6510 C   0  0  0  0  0  0  0  0  0  0  0  0
    5.5935   -8.6419   17.4234 C   0  0  0  0  0  0  0  0  0  0  0  0
   13.0726   -4.6648   23.3394 O   0  0  0  0  0  0  0  0  0  0  0  0
    8.5955   -6.0705   17.3996 C   0  0  0  0  0  0  0  0  0  0  0  0
    4.6223   -8.3832   16.5030 C   0  0  0  0  0  0  0  0  0  0  0  0
   12.4690   -5.2624   19.9024 C   0  0  0  0  0  0  0  0  0  0  0  0
    3.2548   -9.9919   17.4189 C   0  0  0  0  0  0  0  0  0  0  0  0
   12.4767   -4.7393   22.1790 C   0  0  0  0  0  0  0  0  0  0  0  0
    7.8593   -5.3772   15.3569 N   0  0  0  0  0  0  0  0  0  0  0  0
    7.4412   -6.9038   16.9283 C   0  0  0  0  0  0  0  0  0  0  0  0
  1 21  4  0
  1 23  4  0
  2  5  1  0
  2 13  4  0
  2 16  4  0
  3  6  4  0
  3  7  4  0
  4 13  4  0
  4 19  4  0
  4 24  4  0
  6 23  4  0
  7 16  1  0
  7 21  4  0
  8 18  1  0
  9 20  4  0
  9 22  4  0
 10 17  1  0
 10 25  1  0
 11 16  4  0
 11 19  4  0
 12 15  4  0
 12 22  4  0
 14 24  4  0
 14 25  4  0
 15 17  4  0
 17 20  4  0
 18 23  1  0
 19 25  4  0
M  END
$$$$

 Created by Python create_sdf_string function

 25 28  0  0  0  0  0  0  0  0999 V2000
   13.1533   -5.2399   21.0682 C   0  0  0  0  0  0  0  0  0  0  0  0
   10.4729   -4.0295   17.6135 C   0  0  0  0  0  0  0  0  0  0  0  0
   10.4789   -4.3641   20.9564 C   0  0  0  0  0  0  0  0  0  0  0  0
    8.7421   -5.1412   16.3650 C   0  0  0  0  0  0  0  0  0  0  0  0
   11.4353   -2.9204   17.8044 C   0  0  0  0  0  0  0  0  0  0  0  0
   11.1529   -4.3028   22.1277 C   0  0  0  0  0  0  0  0  0  0  0  0
   11.1290   -4.8502   19.8052 C   0  0  0  0  0  0  0  0  0  0  0  0
   12.4329   -4.2159   24.4224 C   0  0  0  0  0  0  0  0  0  0  0  0
    3.4740   -9.0387   16.5022 C   0  0  0  0  0  0  0  0  0  0  0  0
    6.8384   -7.9290   17.5282 N   0  0  0  0  0  0  0  0  0  0  0  0
    9.4126   -5.9853   18.4899 C   0  0  0  0  0  0  0  0  0  0  0  0
    4.2064  -10.3242   18.3302 C   0  0  0  0  0  0  0  0  0  0  0  0
    9.6599   -4.1551   16.4796 N   0  0  0  0  0  0  0  0  0  0  0  0
    7.0644   -6.4612   15.7375 N   0  0  0  0  0  0  0  0  0  0  0  0
    5.3549   -9.6322   18.3190 C   0  0  0  0  0  0  0  0  0  0  0  0
   10.3704   -4.9638   18.6510 C   0  0  0  0  0  0  0  0  0  0  0  0
    5.5935   -8.6419   17.4234 C   0  0  0  0  0  0  0  0  0  0  0  0
   13.0726   -4.6648   23.3394 O   0  0  0  0  0  0  0  0  0  0  0  0
    8.5955   -6.0705   17.3996 C   0  0  0  0  0  0  0  0  0  0  0  0
    4.6223   -8.3832   16.5030 C   0  0  0  0  0  0  0  0  0  0  0  0
   12.4690   -5.2624   19.9024 C   0  0  0  0  0  0  0  0  0  0  0  0
    3.2548   -9.9919   17.4189 C   0  0  0  0  0  0  0  0  0  0  0  0
   12.4767   -4.7393   22.1790 C   0  0  0  0  0  0  0  0  0  0  0  0
    7.8593   -5.3772   15.3569 N   0  0  0  0  0  0  0  0  0  0  0  0
    7.4412   -6.9038   16.9283 C   0  0  0  0  0  0  0  0  0  0  0  0
  1 21  4  0
  1 23  4  0
  2  5  1  0
  2 13  4  0
  2 16  4  0
  3  6  4  0
  3  7  4  0
  4 13  4  0
  4 19  4  0
  4 24  4  0
  6 23  4  0
  7 16  1  0
  7 21  4  0
  8 18  1  0
  9 20  4  0
  9 22  4  0
 10 17  1  0
 10 25  1  0
 11 16  4  0
 11 19  4  0
 12 15  4  0
 12 22  4  0
 14 24  4  0
 14 25  4  0
 15 17  4  0
 17 20  4  0
 18 23  1  0
 19 25  4  0
M  END
$$$$

 Created by Python create_sdf_string function

 25 28  0  0  0  0  0  0  0  0999 V2000
   13.1533   -5.2399   21.0682 C   0  0  0  0  0  0  0  0  0  0  0  0
   10.4729   -4.0295   17.6135 C   0  0  0  0  0  0  0  0  0  0  0  0
   10.4789   -4.3641   20.9564 C   0  0  0  0  0  0  0  0  0  0  0  0
    8.7421   -5.1412   16.3650 C   0  0  0  0  0  0  0  0  0  0  0  0
   11.4353   -2.9204   17.8044 C   0  0  0  0  0  0  0  0  0  0  0  0
   11.1529   -4.3028   22.1277 C   0  0  0  0  0  0  0  0  0  0  0  0
   11.1290   -4.8502   19.8052 C   0  0  0  0  0  0  0  0  0  0  0  0
   12.4329   -4.2159   24.4224 C   0  0  0  0  0  0  0  0  0  0  0  0
    3.4740   -9.0387   16.5022 C   0  0  0  0  0  0  0  0  0  0  0  0
    6.8384   -7.9290   17.5282 N   0  0  0  0  0  0  0  0  0  0  0  0
    9.4126   -5.9853   18.4899 C   0  0  0  0  0  0  0  0  0  0  0  0
    4.2064  -10.3242   18.3302 C   0  0  0  0  0  0  0  0  0  0  0  0
    9.6599   -4.1551   16.4796 N   0  0  0  0  0  0  0  0  0  0  0  0
    7.0644   -6.4612   15.7375 N   0  0  0  0  0  0  0  0  0  0  0  0
    5.3549   -9.6322   18.3190 C   0  0  0  0  0  0  0  0  0  0  0  0
   10.3704   -4.9638   18.6510 C   0  0  0  0  0  0  0  0  0  0  0  0
    5.5935   -8.6419   17.4234 C   0  0  0  0  0  0  0  0  0  0  0  0
   13.0726   -4.6648   23.3394 O   0  0  0  0  0  0  0  0  0  0  0  0
    8.5955   -6.0705   17.3996 C   0  0  0  0  0  0  0  0  0  0  0  0
    4.6223   -8.3832   16.5030 C   0  0  0  0  0  0  0  0  0  0  0  0
   12.4690   -5.2624   19.9024 C   0  0  0  0  0  0  0  0  0  0  0  0
    3.2548   -9.9919   17.4189 C   0  0  0  0  0  0  0  0  0  0  0  0
   12.4767   -4.7393   22.1790 C   0  0  0  0  0  0  0  0  0  0  0  0
    7.8593   -5.3772   15.3569 N   0  0  0  0  0  0  0  0  0  0  0  0
    7.4412   -6.9038   16.9283 C   0  0  0  0  0  0  0  0  0  0  0  0
  1 21  4  0
  1 23  4  0
  2  5  1  0
  2 13  4  0
  2 16  4  0
  3  6  4  0
  3  7  4  0
  4 13  4  0
  4 19  4  0
  4 24  4  0
  6 23  4  0
  7 16  1  0
  7 21  4  0
  8 18  1  0
  9 20  4  0
  9 22  4  0
 10 17  1  0
 10 25  1  0
 11 16  4  0
 11 19  4  0
 12 15  4  0
 12 22  4  0
 14 24  4  0
 14 25  4  0
 15 17  4  0
 17 20  4  0
 18 23  1  0
 19 25  4  0
M  END
$$$$

 Created by Python create_sdf_string function

 25 28  0  0  0  0  0  0  0  0999 V2000
   13.1533   -5.2399   21.0682 C   0  0  0  0  0  0  0  0  0  0  0  0
   10.4729   -4.0295   17.6135 C   0  0  0  0  0  0  0  0  0  0  0  0
   10.4789   -4.3641   20.9564 C   0  0  0  0  0  0  0  0  0  0  0  0
    8.7421   -5.1412   16.3650 C   0  0  0  0  0  0  0  0  0  0  0  0
   11.4353   -2.9204   17.8044 C   0  0  0  0  0  0  0  0  0  0  0  0
   11.1529   -4.3028   22.1277 C   0  0  0  0  0  0  0  0  0  0  0  0
   11.1290   -4.8502   19.8052 C   0  0  0  0  0  0  0  0  0  0  0  0
   12.4329   -4.2159   24.4224 C   0  0  0  0  0  0  0  0  0  0  0  0
    3.4740   -9.0387   16.5022 C   0  0  0  0  0  0  0  0  0  0  0  0
    6.8384   -7.9290   17.5282 N   0  0  0  0  0  0  0  0  0  0  0  0
    9.4126   -5.9853   18.4899 C   0  0  0  0  0  0  0  0  0  0  0  0
    4.2064  -10.3242   18.3302 C   0  0  0  0  0  0  0  0  0  0  0  0
    9.6599   -4.1551   16.4796 N   0  0  0  0  0  0  0  0  0  0  0  0
    7.0644   -6.4612   15.7375 N   0  0  0  0  0  0  0  0  0  0  0  0
    5.3549   -9.6322   18.3190 C   0  0  0  0  0  0  0  0  0  0  0  0
   10.3704   -4.9638   18.6510 C   0  0  0  0  0  0  0  0  0  0  0  0
    5.5935   -8.6419   17.4234 C   0  0  0  0  0  0  0  0  0  0  0  0
   13.0726   -4.6648   23.3394 O   0  0  0  0  0  0  0  0  0  0  0  0
    8.5955   -6.0705   17.3996 C   0  0  0  0  0  0  0  0  0  0  0  0
    4.6223   -8.3832   16.5030 C   0  0  0  0  0  0  0  0  0  0  0  0
   12.4690   -5.2624   19.9024 C   0  0  0  0  0  0  0  0  0  0  0  0
    3.2548   -9.9919   17.4189 C   0  0  0  0  0  0  0  0  0  0  0  0
   12.4767   -4.7393   22.1790 C   0  0  0  0  0  0  0  0  0  0  0  0
    7.8593   -5.3772   15.3569 N   0  0  0  0  0  0  0  0  0  0  0  0
    7.4412   -6.9038   16.9283 C   0  0  0  0  0  0  0  0  0  0  0  0
  1 21  4  0
  1 23  4  0
  2  5  1  0
  2 13  4  0
  2 16  4  0
  3  6  4  0
  3  7  4  0
  4 13  4  0
  4 19  4  0
  4 24  4  0
  6 23  4  0
  7 16  1  0
  7 21  4  0
  8 18  1  0
  9 20  4  0
  9 22  4  0
 10 17  1  0
 10 25  1  0
 11 16  4  0
 11 19  4  0
 12 15  4  0
 12 22  4  0
 14 24  4  0
 14 25  4  0
 15 17  4  0
 17 20  4  0
 18 23  1  0
 19 25  4  0
M  END
$$$$

 Created by Python create_sdf_string function

 25 28  0  0  0  0  0  0  0  0999 V2000
   13.1533   -5.2399   21.0682 C   0  0  0  0  0  0  0  0  0  0  0  0
   10.4729   -4.0295   17.6135 C   0  0  0  0  0  0  0  0  0  0  0  0
   10.4789   -4.3641   20.9564 C   0  0  0  0  0  0  0  0  0  0  0  0
    8.7421   -5.1412   16.3650 C   0  0  0  0  0  0  0  0  0  0  0  0
   11.4353   -2.9204   17.8044 C   0  0  0  0  0  0  0  0  0  0  0  0
   11.1529   -4.3028   22.1277 C   0  0  0  0  0  0  0  0  0  0  0  0
   11.1290   -4.8502   19.8052 C   0  0  0  0  0  0  0  0  0  0  0  0
   12.4329   -4.2159   24.4224 C   0  0  0  0  0  0  0  0  0  0  0  0
    3.4740   -9.0387   16.5022 C   0  0  0  0  0  0  0  0  0  0  0  0
    6.8384   -7.9290   17.5282 N   0  0  0  0  0  0  0  0  0  0  0  0
    9.4126   -5.9853   18.4899 C   0  0  0  0  0  0  0  0  0  0  0  0
    4.2064  -10.3242   18.3302 C   0  0  0  0  0  0  0  0  0  0  0  0
    9.6599   -4.1551   16.4796 N   0  0  0  0  0  0  0  0  0  0  0  0
    7.0644   -6.4612   15.7375 N   0  0  0  0  0  0  0  0  0  0  0  0
    5.3549   -9.6322   18.3190 C   0  0  0  0  0  0  0  0  0  0  0  0
   10.3704   -4.9638   18.6510 C   0  0  0  0  0  0  0  0  0  0  0  0
    5.5935   -8.6419   17.4234 C   0  0  0  0  0  0  0  0  0  0  0  0
   13.0726   -4.6648   23.3394 O   0  0  0  0  0  0  0  0  0  0  0  0
    8.5955   -6.0705   17.3996 C   0  0  0  0  0  0  0  0  0  0  0  0
    4.6223   -8.3832   16.5030 C   0  0  0  0  0  0  0  0  0  0  0  0
   12.4690   -5.2624   19.9024 C   0  0  0  0  0  0  0  0  0  0  0  0
    3.2548   -9.9919   17.4189 C   0  0  0  0  0  0  0  0  0  0  0  0
   12.4767   -4.7393   22.1790 C   0  0  0  0  0  0  0  0  0  0  0  0
    7.8593   -5.3772   15.3569 N   0  0  0  0  0  0  0  0  0  0  0  0
    7.4412   -6.9038   16.9283 C   0  0  0  0  0  0  0  0  0  0  0  0
  1 21  4  0
  1 23  4  0
  2  5  1  0
  2 13  4  0
  2 16  4  0
  3  6  4  0
  3  7  4  0
  4 13  4  0
  4 19  4  0
  4 24  4  0
  6 23  4  0
  7 16  1  0
  7 21  4  0
  8 18  1  0
  9 20  4  0
  9 22  4  0
 10 17  1  0
 10 25  1  0
 11 16  4  0
 11 19  4  0
 12 15  4  0
 12 22  4  0
 14 24  4  0
 14 25  4  0
 15 17  4  0
 17 20  4  0
 18 23  1  0
 19 25  4  0
M  END
$$$$

 Created by Python create_sdf_string function

 25 28  0  0  0  0  0  0  0  0999 V2000
   13.1533   -5.2399   21.0682 C   0  0  0  0  0  0  0  0  0  0  0  0
   10.4729   -4.0295   17.6135 C   0  0  0  0  0  0  0  0  0  0  0  0
   10.4789   -4.3641   20.9564 C   0  0  0  0  0  0  0  0  0  0  0  0
    8.7421   -5.1412   16.3650 C   0  0  0  0  0  0  0  0  0  0  0  0
   11.4353   -2.9204   17.8044 C   0  0  0  0  0  0  0  0  0  0  0  0
   11.1529   -4.3028   22.1277 C   0  0  0  0  0  0  0  0  0  0  0  0
   11.1290   -4.8502   19.8052 C   0  0  0  0  0  0  0  0  0  0  0  0
   12.4329   -4.2159   24.4224 C   0  0  0  0  0  0  0  0  0  0  0  0
    3.4740   -9.0387   16.5022 C   0  0  0  0  0  0  0  0  0  0  0  0
    6.8384   -7.9290   17.5282 N   0  0  0  0  0  0  0  0  0  0  0  0
    9.4126   -5.9853   18.4899 C   0  0  0  0  0  0  0  0  0  0  0  0
    4.2064  -10.3242   18.3302 C   0  0  0  0  0  0  0  0  0  0  0  0
    9.6599   -4.1551   16.4796 N   0  0  0  0  0  0  0  0  0  0  0  0
    7.0644   -6.4612   15.7375 N   0  0  0  0  0  0  0  0  0  0  0  0
    5.3549   -9.6322   18.3190 C   0  0  0  0  0  0  0  0  0  0  0  0
   10.3704   -4.9638   18.6510 C   0  0  0  0  0  0  0  0  0  0  0  0
    5.5935   -8.6419   17.4234 C   0  0  0  0  0  0  0  0  0  0  0  0
   13.0726   -4.6648   23.3394 O   0  0  0  0  0  0  0  0  0  0  0  0
    8.5955   -6.0705   17.3996 C   0  0  0  0  0  0  0  0  0  0  0  0
    4.6223   -8.3832   16.5030 C   0  0  0  0  0  0  0  0  0  0  0  0
   12.4690   -5.2624   19.9024 C   0  0  0  0  0  0  0  0  0  0  0  0
    3.2548   -9.9919   17.4189 C   0  0  0  0  0  0  0  0  0  0  0  0
   12.4767   -4.7393   22.1790 C   0  0  0  0  0  0  0  0  0  0  0  0
    7.8593   -5.3772   15.3569 N   0  0  0  0  0  0  0  0  0  0  0  0
    7.4412   -6.9038   16.9283 C   0  0  0  0  0  0  0  0  0  0  0  0
  1 21  4  0
  1 23  4  0
  2  5  1  0
  2 13  4  0
  2 16  4  0
  3  6  4  0
  3  7  4  0
  4 13  4  0
  4 19  4  0
  4 24  4  0
  6 23  4  0
  7 16  1  0
  7 21  4  0
  8 18  1  0
  9 20  4  0
  9 22  4  0
 10 17  1  0
 10 25  1  0
 11 16  4  0
 11 19  4  0
 12 15  4  0
 12 22  4  0
 14 24  4  0
 14 25  4  0
 15 17  4  0
 17 20  4  0
 18 23  1  0
 19 25  4  0
M  END
$$$$

 Created by Python create_sdf_string function

 25 28  0  0  0  0  0  0  0  0999 V2000
   13.1533   -5.2399   21.0682 C   0  0  0  0  0  0  0  0  0  0  0  0
   10.4729   -4.0295   17.6135 C   0  0  0  0  0  0  0  0  0  0  0  0
   10.4789   -4.3641   20.9564 C   0  0  0  0  0  0  0  0  0  0  0  0
    8.7421   -5.1412   16.3650 C   0  0  0  0  0  0  0  0  0  0  0  0
   11.4353   -2.9204   17.8044 C   0  0  0  0  0  0  0  0  0  0  0  0
   11.1529   -4.3028   22.1277 C   0  0  0  0  0  0  0  0  0  0  0  0
   11.1290   -4.8502   19.8052 C   0  0  0  0  0  0  0  0  0  0  0  0
   12.4329   -4.2159   24.4224 C   0  0  0  0  0  0  0  0  0  0  0  0
    3.4740   -9.0387   16.5022 C   0  0  0  0  0  0  0  0  0  0  0  0
    6.8384   -7.9290   17.5282 N   0  0  0  0  0  0  0  0  0  0  0  0
    9.4126   -5.9853   18.4899 C   0  0  0  0  0  0  0  0  0  0  0  0
    4.2064  -10.3242   18.3302 C   0  0  0  0  0  0  0  0  0  0  0  0
    9.6599   -4.1551   16.4796 N   0  0  0  0  0  0  0  0  0  0  0  0
    7.0644   -6.4612   15.7375 N   0  0  0  0  0  0  0  0  0  0  0  0
    5.3549   -9.6322   18.3190 C   0  0  0  0  0  0  0  0  0  0  0  0
   10.3704   -4.9638   18.6510 C   0  0  0  0  0  0  0  0  0  0  0  0
    5.5935   -8.6419   17.4234 C   0  0  0  0  0  0  0  0  0  0  0  0
   13.0726   -4.6648   23.3394 O   0  0  0  0  0  0  0  0  0  0  0  0
    8.5955   -6.0705   17.3996 C   0  0  0  0  0  0  0  0  0  0  0  0
    4.6223   -8.3832   16.5030 C   0  0  0  0  0  0  0  0  0  0  0  0
   12.4690   -5.2624   19.9024 C   0  0  0  0  0  0  0  0  0  0  0  0
    3.2548   -9.9919   17.4189 C   0  0  0  0  0  0  0  0  0  0  0  0
   12.4767   -4.7393   22.1790 C   0  0  0  0  0  0  0  0  0  0  0  0
    7.8593   -5.3772   15.3569 N   0  0  0  0  0  0  0  0  0  0  0  0
    7.4412   -6.9038   16.9283 C   0  0  0  0  0  0  0  0  0  0  0  0
  1 21  4  0
  1 23  4  0
  2  5  1  0
  2 13  4  0
  2 16  4  0
  3  6  4  0
  3  7  4  0
  4 13  4  0
  4 19  4  0
  4 24  4  0
  6 23  4  0
  7 16  1  0
  7 21  4  0
  8 18  1  0
  9 20  4  0
  9 22  4  0
 10 17  1  0
 10 25  1  0
 11 16  4  0
 11 19  4  0
 12 15  4  0
 12 22  4  0
 14 24  4  0
 14 25  4  0
 15 17  4  0
 17 20  4  0
 18 23  1  0
 19 25  4  0
M  END
$$$$

 Created by Python create_sdf_string function

 25 28  0  0  0  0  0  0  0  0999 V2000
   13.1533   -5.2399   21.0682 C   0  0  0  0  0  0  0  0  0  0  0  0
   10.4729   -4.0295   17.6135 C   0  0  0  0  0  0  0  0  0  0  0  0
   10.4789   -4.3641   20.9564 C   0  0  0  0  0  0  0  0  0  0  0  0
    8.7421   -5.1412   16.3650 C   0  0  0  0  0  0  0  0  0  0  0  0
   11.4353   -2.9204   17.8044 C   0  0  0  0  0  0  0  0  0  0  0  0
   11.1529   -4.3028   22.1277 C   0  0  0  0  0  0  0  0  0  0  0  0
   11.1290   -4.8502   19.8052 C   0  0  0  0  0  0  0  0  0  0  0  0
   12.4329   -4.2159   24.4224 C   0  0  0  0  0  0  0  0  0  0  0  0
    3.4740   -9.0387   16.5022 C   0  0  0  0  0  0  0  0  0  0  0  0
    6.8384   -7.9290   17.5282 N   0  0  0  0  0  0  0  0  0  0  0  0
    9.4126   -5.9853   18.4899 C   0  0  0  0  0  0  0  0  0  0  0  0
    4.2064  -10.3242   18.3302 C   0  0  0  0  0  0  0  0  0  0  0  0
    9.6599   -4.1551   16.4796 N   0  0  0  0  0  0  0  0  0  0  0  0
    7.0644   -6.4612   15.7375 N   0  0  0  0  0  0  0  0  0  0  0  0
    5.3549   -9.6322   18.3190 C   0  0  0  0  0  0  0  0  0  0  0  0
   10.3704   -4.9638   18.6510 C   0  0  0  0  0  0  0  0  0  0  0  0
    5.5935   -8.6419   17.4234 C   0  0  0  0  0  0  0  0  0  0  0  0
   13.0726   -4.6648   23.3394 O   0  0  0  0  0  0  0  0  0  0  0  0
    8.5955   -6.0705   17.3996 C   0  0  0  0  0  0  0  0  0  0  0  0
    4.6223   -8.3832   16.5030 C   0  0  0  0  0  0  0  0  0  0  0  0
   12.4690   -5.2624   19.9024 C   0  0  0  0  0  0  0  0  0  0  0  0
    3.2548   -9.9919   17.4189 C   0  0  0  0  0  0  0  0  0  0  0  0
   12.4767   -4.7393   22.1790 C   0  0  0  0  0  0  0  0  0  0  0  0
    7.8593   -5.3772   15.3569 N   0  0  0  0  0  0  0  0  0  0  0  0
    7.4412   -6.9038   16.9283 C   0  0  0  0  0  0  0  0  0  0  0  0
  1 21  4  0
  1 23  4  0
  2  5  1  0
  2 13  4  0
  2 16  4  0
  3  6  4  0
  3  7  4  0
  4 13  4  0
  4 19  4  0
  4 24  4  0
  6 23  4  0
  7 16  1  0
  7 21  4  0
  8 18  1  0
  9 20  4  0
  9 22  4  0
 10 17  1  0
 10 25  1  0
 11 16  4  0
 11 19  4  0
 12 15  4  0
 12 22  4  0
 14 24  4  0
 14 25  4  0
 15 17  4  0
 17 20  4  0
 18 23  1  0
 19 25  4  0
M  END
$$$$

 Created by Python create_sdf_string function

 25 28  0  0  0  0  0  0  0  0999 V2000
   13.1533   -5.2399   21.0682 C   0  0  0  0  0  0  0  0  0  0  0  0
   10.4729   -4.0295   17.6135 C   0  0  0  0  0  0  0  0  0  0  0  0
   10.4789   -4.3641   20.9564 C   0  0  0  0  0  0  0  0  0  0  0  0
    8.7421   -5.1412   16.3650 C   0  0  0  0  0  0  0  0  0  0  0  0
   11.4353   -2.9204   17.8044 C   0  0  0  0  0  0  0  0  0  0  0  0
   11.1529   -4.3028   22.1277 C   0  0  0  0  0  0  0  0  0  0  0  0
   11.1290   -4.8502   19.8052 C   0  0  0  0  0  0  0  0  0  0  0  0
   12.4329   -4.2159   24.4224 C   0  0  0  0  0  0  0  0  0  0  0  0
    3.4740   -9.0387   16.5022 C   0  0  0  0  0  0  0  0  0  0  0  0
    6.8384   -7.9290   17.5282 N   0  0  0  0  0  0  0  0  0  0  0  0
    9.4126   -5.9853   18.4899 C   0  0  0  0  0  0  0  0  0  0  0  0
    4.2064  -10.3242   18.3302 C   0  0  0  0  0  0  0  0  0  0  0  0
    9.6599   -4.1551   16.4796 N   0  0  0  0  0  0  0  0  0  0  0  0
    7.0644   -6.4612   15.7375 N   0  0  0  0  0  0  0  0  0  0  0  0
    5.3549   -9.6322   18.3190 C   0  0  0  0  0  0  0  0  0  0  0  0
   10.3704   -4.9638   18.6510 C   0  0  0  0  0  0  0  0  0  0  0  0
    5.5935   -8.6419   17.4234 C   0  0  0  0  0  0  0  0  0  0  0  0
   13.0726   -4.6648   23.3394 O   0  0  0  0  0  0  0  0  0  0  0  0
    8.5955   -6.0705   17.3996 C   0  0  0  0  0  0  0  0  0  0  0  0
    4.6223   -8.3832   16.5030 C   0  0  0  0  0  0  0  0  0  0  0  0
   12.4690   -5.2624   19.9024 C   0  0  0  0  0  0  0  0  0  0  0  0
    3.2548   -9.9919   17.4189 C   0  0  0  0  0  0  0  0  0  0  0  0
   12.4767   -4.7393   22.1790 C   0  0  0  0  0  0  0  0  0  0  0  0
    7.8593   -5.3772   15.3569 N   0  0  0  0  0  0  0  0  0  0  0  0
    7.4412   -6.9038   16.9283 C   0  0  0  0  0  0  0  0  0  0  0  0
  1 21  4  0
  1 23  4  0
  2  5  1  0
  2 13  4  0
  2 16  4  0
  3  6  4  0
  3  7  4  0
  4 13  4  0
  4 19  4  0
  4 24  4  0
  6 23  4  0
  7 16  1  0
  7 21  4  0
  8 18  1  0
  9 20  4  0
  9 22  4  0
 10 17  1  0
 10 25  1  0
 11 16  4  0
 11 19  4  0
 12 15  4  0
 12 22  4  0
 14 24  4  0
 14 25  4  0
 15 17  4  0
 17 20  4  0
 18 23  1  0
 19 25  4  0
M  END
$$$$

 Created by Python create_sdf_string function

 25 28  0  0  0  0  0  0  0  0999 V2000
   13.1533   -5.2399   21.0682 C   0  0  0  0  0  0  0  0  0  0  0  0
   10.4729   -4.0295   17.6135 C   0  0  0  0  0  0  0  0  0  0  0  0
   10.4789   -4.3641   20.9564 C   0  0  0  0  0  0  0  0  0  0  0  0
    8.7421   -5.1412   16.3650 C   0  0  0  0  0  0  0  0  0  0  0  0
   11.4353   -2.9204   17.8044 C   0  0  0  0  0  0  0  0  0  0  0  0
   11.1529   -4.3028   22.1277 C   0  0  0  0  0  0  0  0  0  0  0  0
   11.1290   -4.8502   19.8052 C   0  0  0  0  0  0  0  0  0  0  0  0
   12.4329   -4.2159   24.4224 C   0  0  0  0  0  0  0  0  0  0  0  0
    3.4740   -9.0387   16.5022 C   0  0  0  0  0  0  0  0  0  0  0  0
    6.8384   -7.9290   17.5282 N   0  0  0  0  0  0  0  0  0  0  0  0
    9.4126   -5.9853   18.4899 C   0  0  0  0  0  0  0  0  0  0  0  0
    4.2064  -10.3242   18.3302 C   0  0  0  0  0  0  0  0  0  0  0  0
    9.6599   -4.1551   16.4796 N   0  0  0  0  0  0  0  0  0  0  0  0
    7.0644   -6.4612   15.7375 N   0  0  0  0  0  0  0  0  0  0  0  0
    5.3549   -9.6322   18.3190 C   0  0  0  0  0  0  0  0  0  0  0  0
   10.3704   -4.9638   18.6510 C   0  0  0  0  0  0  0  0  0  0  0  0
    5.5935   -8.6419   17.4234 C   0  0  0  0  0  0  0  0  0  0  0  0
   13.0726   -4.6648   23.3394 O   0  0  0  0  0  0  0  0  0  0  0  0
    8.5955   -6.0705   17.3996 C   0  0  0  0  0  0  0  0  0  0  0  0
    4.6223   -8.3832   16.5030 C   0  0  0  0  0  0  0  0  0  0  0  0
   12.4690   -5.2624   19.9024 C   0  0  0  0  0  0  0  0  0  0  0  0
    3.2548   -9.9919   17.4189 C   0  0  0  0  0  0  0  0  0  0  0  0
   12.4767   -4.7393   22.1790 C   0  0  0  0  0  0  0  0  0  0  0  0
    7.8593   -5.3772   15.3569 N   0  0  0  0  0  0  0  0  0  0  0  0
    7.4412   -6.9038   16.9283 C   0  0  0  0  0  0  0  0  0  0  0  0
  1 21  4  0
  1 23  4  0
  2  5  1  0
  2 13  4  0
  2 16  4  0
  3  6  4  0
  3  7  4  0
  4 13  4  0
  4 19  4  0
  4 24  4  0
  6 23  4  0
  7 16  1  0
  7 21  4  0
  8 18  1  0
  9 20  4  0
  9 22  4  0
 10 17  1  0
 10 25  1  0
 11 16  4  0
 11 19  4  0
 12 15  4  0
 12 22  4  0
 14 24  4  0
 14 25  4  0
 15 17  4  0
 17 20  4  0
 18 23  1  0
 19 25  4  0
M  END
$$$$

 Created by Python create_sdf_string function

 25 28  0  0  0  0  0  0  0  0999 V2000
   13.1533   -5.2399   21.0682 C   0  0  0  0  0  0  0  0  0  0  0  0
   10.4729   -4.0295   17.6135 C   0  0  0  0  0  0  0  0  0  0  0  0
   10.4789   -4.3641   20.9564 C   0  0  0  0  0  0  0  0  0  0  0  0
    8.7421   -5.1412   16.3650 C   0  0  0  0  0  0  0  0  0  0  0  0
   11.4353   -2.9204   17.8044 C   0  0  0  0  0  0  0  0  0  0  0  0
   11.1529   -4.3028   22.1277 C   0  0  0  0  0  0  0  0  0  0  0  0
   11.1290   -4.8502   19.8052 C   0  0  0  0  0  0  0  0  0  0  0  0
   12.4329   -4.2159   24.4224 C   0  0  0  0  0  0  0  0  0  0  0  0
    3.4740   -9.0387   16.5022 C   0  0  0  0  0  0  0  0  0  0  0  0
    6.8384   -7.9290   17.5282 N   0  0  0  0  0  0  0  0  0  0  0  0
    9.4126   -5.9853   18.4899 C   0  0  0  0  0  0  0  0  0  0  0  0
    4.2064  -10.3242   18.3302 C   0  0  0  0  0  0  0  0  0  0  0  0
    9.6599   -4.1551   16.4796 N   0  0  0  0  0  0  0  0  0  0  0  0
    7.0644   -6.4612   15.7375 N   0  0  0  0  0  0  0  0  0  0  0  0
    5.3549   -9.6322   18.3190 C   0  0  0  0  0  0  0  0  0  0  0  0
   10.3704   -4.9638   18.6510 C   0  0  0  0  0  0  0  0  0  0  0  0
    5.5935   -8.6419   17.4234 C   0  0  0  0  0  0  0  0  0  0  0  0
   13.0726   -4.6648   23.3394 O   0  0  0  0  0  0  0  0  0  0  0  0
    8.5955   -6.0705   17.3996 C   0  0  0  0  0  0  0  0  0  0  0  0
    4.6223   -8.3832   16.5030 C   0  0  0  0  0  0  0  0  0  0  0  0
   12.4690   -5.2624   19.9024 C   0  0  0  0  0  0  0  0  0  0  0  0
    3.2548   -9.9919   17.4189 C   0  0  0  0  0  0  0  0  0  0  0  0
   12.4767   -4.7393   22.1790 C   0  0  0  0  0  0  0  0  0  0  0  0
    7.8593   -5.3772   15.3569 N   0  0  0  0  0  0  0  0  0  0  0  0
    7.4412   -6.9038   16.9283 C   0  0  0  0  0  0  0  0  0  0  0  0
  1 21  4  0
  1 23  4  0
  2  5  1  0
  2 13  4  0
  2 16  4  0
  3  6  4  0
  3  7  4  0
  4 13  4  0
  4 19  4  0
  4 24  4  0
  6 23  4  0
  7 16  1  0
  7 21  4  0
  8 18  1  0
  9 20  4  0
  9 22  4  0
 10 17  1  0
 10 25  1  0
 11 16  4  0
 11 19  4  0
 12 15  4  0
 12 22  4  0
 14 24  4  0
 14 25  4  0
 15 17  4  0
 17 20  4  0
 18 23  1  0
 19 25  4  0
M  END
$$$$

 Created by Python create_sdf_string function

 25 28  0  0  0  0  0  0  0  0999 V2000
   13.1533   -5.2399   21.0682 C   0  0  0  0  0  0  0  0  0  0  0  0
   10.4729   -4.0295   17.6135 C   0  0  0  0  0  0  0  0  0  0  0  0
   10.4789   -4.3641   20.9564 C   0  0  0  0  0  0  0  0  0  0  0  0
    8.7421   -5.1412   16.3650 C   0  0  0  0  0  0  0  0  0  0  0  0
   11.4353   -2.9204   17.8044 C   0  0  0  0  0  0  0  0  0  0  0  0
   11.1529   -4.3028   22.1277 C   0  0  0  0  0  0  0  0  0  0  0  0
   11.1290   -4.8502   19.8052 C   0  0  0  0  0  0  0  0  0  0  0  0
   12.4329   -4.2159   24.4224 C   0  0  0  0  0  0  0  0  0  0  0  0
    3.4740   -9.0387   16.5022 C   0  0  0  0  0  0  0  0  0  0  0  0
    6.8384   -7.9290   17.5282 N   0  0  0  0  0  0  0  0  0  0  0  0
    9.4126   -5.9853   18.4899 C   0  0  0  0  0  0  0  0  0  0  0  0
    4.2064  -10.3242   18.3302 C   0  0  0  0  0  0  0  0  0  0  0  0
    9.6599   -4.1551   16.4796 N   0  0  0  0  0  0  0  0  0  0  0  0
    7.0644   -6.4612   15.7375 N   0  0  0  0  0  0  0  0  0  0  0  0
    5.3549   -9.6322   18.3190 C   0  0  0  0  0  0  0  0  0  0  0  0
   10.3704   -4.9638   18.6510 C   0  0  0  0  0  0  0  0  0  0  0  0
    5.5935   -8.6419   17.4234 C   0  0  0  0  0  0  0  0  0  0  0  0
   13.0726   -4.6648   23.3394 O   0  0  0  0  0  0  0  0  0  0  0  0
    8.5955   -6.0705   17.3996 C   0  0  0  0  0  0  0  0  0  0  0  0
    4.6223   -8.3832   16.5030 C   0  0  0  0  0  0  0  0  0  0  0  0
   12.4690   -5.2624   19.9024 C   0  0  0  0  0  0  0  0  0  0  0  0
    3.2548   -9.9919   17.4189 C   0  0  0  0  0  0  0  0  0  0  0  0
   12.4767   -4.7393   22.1790 C   0  0  0  0  0  0  0  0  0  0  0  0
    7.8593   -5.3772   15.3569 N   0  0  0  0  0  0  0  0  0  0  0  0
    7.4412   -6.9038   16.9283 C   0  0  0  0  0  0  0  0  0  0  0  0
  1 21  4  0
  1 23  4  0
  2  5  1  0
  2 13  4  0
  2 16  4  0
  3  6  4  0
  3  7  4  0
  4 13  4  0
  4 19  4  0
  4 24  4  0
  6 23  4  0
  7 16  1  0
  7 21  4  0
  8 18  1  0
  9 20  4  0
  9 22  4  0
 10 17  1  0
 10 25  1  0
 11 16  4  0
 11 19  4  0
 12 15  4  0
 12 22  4  0
 14 24  4  0
 14 25  4  0
 15 17  4  0
 17 20  4  0
 18 23  1  0
 19 25  4  0
M  END
$$$$

 Created by Python create_sdf_string function

 25 28  0  0  0  0  0  0  0  0999 V2000
   13.1533   -5.2399   21.0682 C   0  0  0  0  0  0  0  0  0  0  0  0
   10.4729   -4.0295   17.6135 C   0  0  0  0  0  0  0  0  0  0  0  0
   10.4789   -4.3641   20.9564 C   0  0  0  0  0  0  0  0  0  0  0  0
    8.7421   -5.1412   16.3650 C   0  0  0  0  0  0  0  0  0  0  0  0
   11.4353   -2.9204   17.8044 C   0  0  0  0  0  0  0  0  0  0  0  0
   11.1529   -4.3028   22.1277 C   0  0  0  0  0  0  0  0  0  0  0  0
   11.1290   -4.8502   19.8052 C   0  0  0  0  0  0  0  0  0  0  0  0
   12.4329   -4.2159   24.4224 C   0  0  0  0  0  0  0  0  0  0  0  0
    3.4740   -9.0387   16.5022 C   0  0  0  0  0  0  0  0  0  0  0  0
    6.8384   -7.9290   17.5282 N   0  0  0  0  0  0  0  0  0  0  0  0
    9.4126   -5.9853   18.4899 C   0  0  0  0  0  0  0  0  0  0  0  0
    4.2064  -10.3242   18.3302 C   0  0  0  0  0  0  0  0  0  0  0  0
    9.6599   -4.1551   16.4796 N   0  0  0  0  0  0  0  0  0  0  0  0
    7.0644   -6.4612   15.7375 N   0  0  0  0  0  0  0  0  0  0  0  0
    5.3549   -9.6322   18.3190 C   0  0  0  0  0  0  0  0  0  0  0  0
   10.3704   -4.9638   18.6510 C   0  0  0  0  0  0  0  0  0  0  0  0
    5.5935   -8.6419   17.4234 C   0  0  0  0  0  0  0  0  0  0  0  0
   13.0726   -4.6648   23.3394 O   0  0  0  0  0  0  0  0  0  0  0  0
    8.5955   -6.0705   17.3996 C   0  0  0  0  0  0  0  0  0  0  0  0
    4.6223   -8.3832   16.5030 C   0  0  0  0  0  0  0  0  0  0  0  0
   12.4690   -5.2624   19.9024 C   0  0  0  0  0  0  0  0  0  0  0  0
    3.2548   -9.9919   17.4189 C   0  0  0  0  0  0  0  0  0  0  0  0
   12.4767   -4.7393   22.1790 C   0  0  0  0  0  0  0  0  0  0  0  0
    7.8593   -5.3772   15.3569 N   0  0  0  0  0  0  0  0  0  0  0  0
    7.4412   -6.9038   16.9283 C   0  0  0  0  0  0  0  0  0  0  0  0
  1 21  4  0
  1 23  4  0
  2  5  1  0
  2 13  4  0
  2 16  4  0
  3  6  4  0
  3  7  4  0
  4 13  4  0
  4 19  4  0
  4 24  4  0
  6 23  4  0
  7 16  1  0
  7 21  4  0
  8 18  1  0
  9 20  4  0
  9 22  4  0
 10 17  1  0
 10 25  1  0
 11 16  4  0
 11 19  4  0
 12 15  4  0
 12 22  4  0
 14 24  4  0
 14 25  4  0
 15 17  4  0
 17 20  4  0
 18 23  1  0
 19 25  4  0
M  END
$$$$

 Created by Python create_sdf_string function

 25 28  0  0  0  0  0  0  0  0999 V2000
   13.1533   -5.2399   21.0682 C   0  0  0  0  0  0  0  0  0  0  0  0
   10.4729   -4.0295   17.6135 C   0  0  0  0  0  0  0  0  0  0  0  0
   10.4789   -4.3641   20.9564 C   0  0  0  0  0  0  0  0  0  0  0  0
    8.7421   -5.1412   16.3650 C   0  0  0  0  0  0  0  0  0  0  0  0
   11.4353   -2.9204   17.8044 C   0  0  0  0  0  0  0  0  0  0  0  0
   11.1529   -4.3028   22.1277 C   0  0  0  0  0  0  0  0  0  0  0  0
   11.1290   -4.8502   19.8052 C   0  0  0  0  0  0  0  0  0  0  0  0
   12.4329   -4.2159   24.4224 C   0  0  0  0  0  0  0  0  0  0  0  0
    3.4740   -9.0387   16.5022 C   0  0  0  0  0  0  0  0  0  0  0  0
    6.8384   -7.9290   17.5282 N   0  0  0  0  0  0  0  0  0  0  0  0
    9.4126   -5.9853   18.4899 C   0  0  0  0  0  0  0  0  0  0  0  0
    4.2064  -10.3242   18.3302 C   0  0  0  0  0  0  0  0  0  0  0  0
    9.6599   -4.1551   16.4796 N   0  0  0  0  0  0  0  0  0  0  0  0
    7.0644   -6.4612   15.7375 N   0  0  0  0  0  0  0  0  0  0  0  0
    5.3549   -9.6322   18.3190 C   0  0  0  0  0  0  0  0  0  0  0  0
   10.3704   -4.9638   18.6510 C   0  0  0  0  0  0  0  0  0  0  0  0
    5.5935   -8.6419   17.4234 C   0  0  0  0  0  0  0  0  0  0  0  0
   13.0726   -4.6648   23.3394 O   0  0  0  0  0  0  0  0  0  0  0  0
    8.5955   -6.0705   17.3996 C   0  0  0  0  0  0  0  0  0  0  0  0
    4.6223   -8.3832   16.5030 C   0  0  0  0  0  0  0  0  0  0  0  0
   12.4690   -5.2624   19.9024 C   0  0  0  0  0  0  0  0  0  0  0  0
    3.2548   -9.9919   17.4189 C   0  0  0  0  0  0  0  0  0  0  0  0
   12.4767   -4.7393   22.1790 C   0  0  0  0  0  0  0  0  0  0  0  0
    7.8593   -5.3772   15.3569 N   0  0  0  0  0  0  0  0  0  0  0  0
    7.4412   -6.9038   16.9283 C   0  0  0  0  0  0  0  0  0  0  0  0
  1 21  4  0
  1 23  4  0
  2  5  1  0
  2 13  4  0
  2 16  4  0
  3  6  4  0
  3  7  4  0
  4 13  4  0
  4 19  4  0
  4 24  4  0
  6 23  4  0
  7 16  1  0
  7 21  4  0
  8 18  1  0
  9 20  4  0
  9 22  4  0
 10 17  1  0
 10 25  1  0
 11 16  4  0
 11 19  4  0
 12 15  4  0
 12 22  4  0
 14 24  4  0
 14 25  4  0
 15 17  4  0
 17 20  4  0
 18 23  1  0
 19 25  4  0
M  END
$$$$

 Created by Python create_sdf_string function

 25 28  0  0  0  0  0  0  0  0999 V2000
   13.1533   -5.2399   21.0682 C   0  0  0  0  0  0  0  0  0  0  0  0
   10.4729   -4.0295   17.6135 C   0  0  0  0  0  0  0  0  0  0  0  0
   10.4789   -4.3641   20.9564 C   0  0  0  0  0  0  0  0  0  0  0  0
    8.7421   -5.1412   16.3650 C   0  0  0  0  0  0  0  0  0  0  0  0
   11.4353   -2.9204   17.8044 C   0  0  0  0  0  0  0  0  0  0  0  0
   11.1529   -4.3028   22.1277 C   0  0  0  0  0  0  0  0  0  0  0  0
   11.1290   -4.8502   19.8052 C   0  0  0  0  0  0  0  0  0  0  0  0
   12.4329   -4.2159   24.4224 C   0  0  0  0  0  0  0  0  0  0  0  0
    3.4740   -9.0387   16.5022 C   0  0  0  0  0  0  0  0  0  0  0  0
    6.8384   -7.9290   17.5282 N   0  0  0  0  0  0  0  0  0  0  0  0
    9.4126   -5.9853   18.4899 C   0  0  0  0  0  0  0  0  0  0  0  0
    4.2064  -10.3242   18.3302 C   0  0  0  0  0  0  0  0  0  0  0  0
    9.6599   -4.1551   16.4796 N   0  0  0  0  0  0  0  0  0  0  0  0
    7.0644   -6.4612   15.7375 N   0  0  0  0  0  0  0  0  0  0  0  0
    5.3549   -9.6322   18.3190 C   0  0  0  0  0  0  0  0  0  0  0  0
   10.3704   -4.9638   18.6510 C   0  0  0  0  0  0  0  0  0  0  0  0
    5.5935   -8.6419   17.4234 C   0  0  0  0  0  0  0  0  0  0  0  0
   13.0726   -4.6648   23.3394 O   0  0  0  0  0  0  0  0  0  0  0  0
    8.5955   -6.0705   17.3996 C   0  0  0  0  0  0  0  0  0  0  0  0
    4.6223   -8.3832   16.5030 C   0  0  0  0  0  0  0  0  0  0  0  0
   12.4690   -5.2624   19.9024 C   0  0  0  0  0  0  0  0  0  0  0  0
    3.2548   -9.9919   17.4189 C   0  0  0  0  0  0  0  0  0  0  0  0
   12.4767   -4.7393   22.1790 C   0  0  0  0  0  0  0  0  0  0  0  0
    7.8593   -5.3772   15.3569 N   0  0  0  0  0  0  0  0  0  0  0  0
    7.4412   -6.9038   16.9283 C   0  0  0  0  0  0  0  0  0  0  0  0
  1 21  4  0
  1 23  4  0
  2  5  1  0
  2 13  4  0
  2 16  4  0
  3  6  4  0
  3  7  4  0
  4 13  4  0
  4 19  4  0
  4 24  4  0
  6 23  4  0
  7 16  1  0
  7 21  4  0
  8 18  1  0
  9 20  4  0
  9 22  4  0
 10 17  1  0
 10 25  1  0
 11 16  4  0
 11 19  4  0
 12 15  4  0
 12 22  4  0
 14 24  4  0
 14 25  4  0
 15 17  4  0
 17 20  4  0
 18 23  1  0
 19 25  4  0
M  END
$$$$

 Created by Python create_sdf_string function

 25 28  0  0  0  0  0  0  0  0999 V2000
   13.1533   -5.2399   21.0682 C   0  0  0  0  0  0  0  0  0  0  0  0
   10.4729   -4.0295   17.6135 C   0  0  0  0  0  0  0  0  0  0  0  0
   10.4789   -4.3641   20.9564 C   0  0  0  0  0  0  0  0  0  0  0  0
    8.7421   -5.1412   16.3650 C   0  0  0  0  0  0  0  0  0  0  0  0
   11.4353   -2.9204   17.8044 C   0  0  0  0  0  0  0  0  0  0  0  0
   11.1529   -4.3028   22.1277 C   0  0  0  0  0  0  0  0  0  0  0  0
   11.1290   -4.8502   19.8052 C   0  0  0  0  0  0  0  0  0  0  0  0
   12.4329   -4.2159   24.4224 C   0  0  0  0  0  0  0  0  0  0  0  0
    3.4740   -9.0387   16.5022 C   0  0  0  0  0  0  0  0  0  0  0  0
    6.8384   -7.9290   17.5282 N   0  0  0  0  0  0  0  0  0  0  0  0
    9.4126   -5.9853   18.4899 C   0  0  0  0  0  0  0  0  0  0  0  0
    4.2064  -10.3242   18.3302 C   0  0  0  0  0  0  0  0  0  0  0  0
    9.6599   -4.1551   16.4796 N   0  0  0  0  0  0  0  0  0  0  0  0
    7.0644   -6.4612   15.7375 N   0  0  0  0  0  0  0  0  0  0  0  0
    5.3549   -9.6322   18.3190 C   0  0  0  0  0  0  0  0  0  0  0  0
   10.3704   -4.9638   18.6510 C   0  0  0  0  0  0  0  0  0  0  0  0
    5.5935   -8.6419   17.4234 C   0  0  0  0  0  0  0  0  0  0  0  0
   13.0726   -4.6648   23.3394 O   0  0  0  0  0  0  0  0  0  0  0  0
    8.5955   -6.0705   17.3996 C   0  0  0  0  0  0  0  0  0  0  0  0
    4.6223   -8.3832   16.5030 C   0  0  0  0  0  0  0  0  0  0  0  0
   12.4690   -5.2624   19.9024 C   0  0  0  0  0  0  0  0  0  0  0  0
    3.2548   -9.9919   17.4189 C   0  0  0  0  0  0  0  0  0  0  0  0
   12.4767   -4.7393   22.1790 C   0  0  0  0  0  0  0  0  0  0  0  0
    7.8593   -5.3772   15.3569 N   0  0  0  0  0  0  0  0  0  0  0  0
    7.4412   -6.9038   16.9283 C   0  0  0  0  0  0  0  0  0  0  0  0
  1 21  4  0
  1 23  4  0
  2  5  1  0
  2 13  4  0
  2 16  4  0
  3  6  4  0
  3  7  4  0
  4 13  4  0
  4 19  4  0
  4 24  4  0
  6 23  4  0
  7 16  1  0
  7 21  4  0
  8 18  1  0
  9 20  4  0
  9 22  4  0
 10 17  1  0
 10 25  1  0
 11 16  4  0
 11 19  4  0
 12 15  4  0
 12 22  4  0
 14 24  4  0
 14 25  4  0
 15 17  4  0
 17 20  4  0
 18 23  1  0
 19 25  4  0
M  END
$$$$

 Created by Python create_sdf_string function

 25 28  0  0  0  0  0  0  0  0999 V2000
   13.1533   -5.2399   21.0682 C   0  0  0  0  0  0  0  0  0  0  0  0
   10.4729   -4.0295   17.6135 C   0  0  0  0  0  0  0  0  0  0  0  0
   10.4789   -4.3641   20.9564 C   0  0  0  0  0  0  0  0  0  0  0  0
    8.7421   -5.1412   16.3650 C   0  0  0  0  0  0  0  0  0  0  0  0
   11.4353   -2.9204   17.8044 C   0  0  0  0  0  0  0  0  0  0  0  0
   11.1529   -4.3028   22.1277 C   0  0  0  0  0  0  0  0  0  0  0  0
   11.1290   -4.8502   19.8052 C   0  0  0  0  0  0  0  0  0  0  0  0
   12.4329   -4.2159   24.4224 C   0  0  0  0  0  0  0  0  0  0  0  0
    3.4740   -9.0387   16.5022 C   0  0  0  0  0  0  0  0  0  0  0  0
    6.8384   -7.9290   17.5282 N   0  0  0  0  0  0  0  0  0  0  0  0
    9.4126   -5.9853   18.4899 C   0  0  0  0  0  0  0  0  0  0  0  0
    4.2064  -10.3242   18.3302 C   0  0  0  0  0  0  0  0  0  0  0  0
    9.6599   -4.1551   16.4796 N   0  0  0  0  0  0  0  0  0  0  0  0
    7.0644   -6.4612   15.7375 N   0  0  0  0  0  0  0  0  0  0  0  0
    5.3549   -9.6322   18.3190 C   0  0  0  0  0  0  0  0  0  0  0  0
   10.3704   -4.9638   18.6510 C   0  0  0  0  0  0  0  0  0  0  0  0
    5.5935   -8.6419   17.4234 C   0  0  0  0  0  0  0  0  0  0  0  0
   13.0726   -4.6648   23.3394 O   0  0  0  0  0  0  0  0  0  0  0  0
    8.5955   -6.0705   17.3996 C   0  0  0  0  0  0  0  0  0  0  0  0
    4.6223   -8.3832   16.5030 C   0  0  0  0  0  0  0  0  0  0  0  0
   12.4690   -5.2624   19.9024 C   0  0  0  0  0  0  0  0  0  0  0  0
    3.2548   -9.9919   17.4189 C   0  0  0  0  0  0  0  0  0  0  0  0
   12.4767   -4.7393   22.1790 C   0  0  0  0  0  0  0  0  0  0  0  0
    7.8593   -5.3772   15.3569 N   0  0  0  0  0  0  0  0  0  0  0  0
    7.4412   -6.9038   16.9283 C   0  0  0  0  0  0  0  0  0  0  0  0
  1 21  4  0
  1 23  4  0
  2  5  1  0
  2 13  4  0
  2 16  4  0
  3  6  4  0
  3  7  4  0
  4 13  4  0
  4 19  4  0
  4 24  4  0
  6 23  4  0
  7 16  1  0
  7 21  4  0
  8 18  1  0
  9 20  4  0
  9 22  4  0
 10 17  1  0
 10 25  1  0
 11 16  4  0
 11 19  4  0
 12 15  4  0
 12 22  4  0
 14 24  4  0
 14 25  4  0
 15 17  4  0
 17 20  4  0
 18 23  1  0
 19 25  4  0
M  END
$$$$

 Created by Python create_sdf_string function

 25 28  0  0  0  0  0  0  0  0999 V2000
   13.1533   -5.2399   21.0682 C   0  0  0  0  0  0  0  0  0  0  0  0
   10.4729   -4.0295   17.6135 C   0  0  0  0  0  0  0  0  0  0  0  0
   10.4789   -4.3641   20.9564 C   0  0  0  0  0  0  0  0  0  0  0  0
    8.7421   -5.1412   16.3650 C   0  0  0  0  0  0  0  0  0  0  0  0
   11.4353   -2.9204   17.8044 C   0  0  0  0  0  0  0  0  0  0  0  0
   11.1529   -4.3028   22.1277 C   0  0  0  0  0  0  0  0  0  0  0  0
   11.1290   -4.8502   19.8052 C   0  0  0  0  0  0  0  0  0  0  0  0
   12.4329   -4.2159   24.4224 C   0  0  0  0  0  0  0  0  0  0  0  0
    3.4740   -9.0387   16.5022 C   0  0  0  0  0  0  0  0  0  0  0  0
    6.8384   -7.9290   17.5282 N   0  0  0  0  0  0  0  0  0  0  0  0
    9.4126   -5.9853   18.4899 C   0  0  0  0  0  0  0  0  0  0  0  0
    4.2064  -10.3242   18.3302 C   0  0  0  0  0  0  0  0  0  0  0  0
    9.6599   -4.1551   16.4796 N   0  0  0  0  0  0  0  0  0  0  0  0
    7.0644   -6.4612   15.7375 N   0  0  0  0  0  0  0  0  0  0  0  0
    5.3549   -9.6322   18.3190 C   0  0  0  0  0  0  0  0  0  0  0  0
   10.3704   -4.9638   18.6510 C   0  0  0  0  0  0  0  0  0  0  0  0
    5.5935   -8.6419   17.4234 C   0  0  0  0  0  0  0  0  0  0  0  0
   13.0726   -4.6648   23.3394 O   0  0  0  0  0  0  0  0  0  0  0  0
    8.5955   -6.0705   17.3996 C   0  0  0  0  0  0  0  0  0  0  0  0
    4.6223   -8.3832   16.5030 C   0  0  0  0  0  0  0  0  0  0  0  0
   12.4690   -5.2624   19.9024 C   0  0  0  0  0  0  0  0  0  0  0  0
    3.2548   -9.9919   17.4189 C   0  0  0  0  0  0  0  0  0  0  0  0
   12.4767   -4.7393   22.1790 C   0  0  0  0  0  0  0  0  0  0  0  0
    7.8593   -5.3772   15.3569 N   0  0  0  0  0  0  0  0  0  0  0  0
    7.4412   -6.9038   16.9283 C   0  0  0  0  0  0  0  0  0  0  0  0
  1 21  4  0
  1 23  4  0
  2  5  1  0
  2 13  4  0
  2 16  4  0
  3  6  4  0
  3  7  4  0
  4 13  4  0
  4 19  4  0
  4 24  4  0
  6 23  4  0
  7 16  1  0
  7 21  4  0
  8 18  1  0
  9 20  4  0
  9 22  4  0
 10 17  1  0
 10 25  1  0
 11 16  4  0
 11 19  4  0
 12 15  4  0
 12 22  4  0
 14 24  4  0
 14 25  4  0
 15 17  4  0
 17 20  4  0
 18 23  1  0
 19 25  4  0
M  END
$$$$

 Created by Python create_sdf_string function

 25 28  0  0  0  0  0  0  0  0999 V2000
   13.1533   -5.2399   21.0682 C   0  0  0  0  0  0  0  0  0  0  0  0
   10.4729   -4.0295   17.6135 C   0  0  0  0  0  0  0  0  0  0  0  0
   10.4789   -4.3641   20.9564 C   0  0  0  0  0  0  0  0  0  0  0  0
    8.7421   -5.1412   16.3650 C   0  0  0  0  0  0  0  0  0  0  0  0
   11.4353   -2.9204   17.8044 C   0  0  0  0  0  0  0  0  0  0  0  0
   11.1529   -4.3028   22.1277 C   0  0  0  0  0  0  0  0  0  0  0  0
   11.1290   -4.8502   19.8052 C   0  0  0  0  0  0  0  0  0  0  0  0
   12.4329   -4.2159   24.4224 C   0  0  0  0  0  0  0  0  0  0  0  0
    3.4740   -9.0387   16.5022 C   0  0  0  0  0  0  0  0  0  0  0  0
    6.8384   -7.9290   17.5282 N   0  0  0  0  0  0  0  0  0  0  0  0
    9.4126   -5.9853   18.4899 C   0  0  0  0  0  0  0  0  0  0  0  0
    4.2064  -10.3242   18.3302 C   0  0  0  0  0  0  0  0  0  0  0  0
    9.6599   -4.1551   16.4796 N   0  0  0  0  0  0  0  0  0  0  0  0
    7.0644   -6.4612   15.7375 N   0  0  0  0  0  0  0  0  0  0  0  0
    5.3549   -9.6322   18.3190 C   0  0  0  0  0  0  0  0  0  0  0  0
   10.3704   -4.9638   18.6510 C   0  0  0  0  0  0  0  0  0  0  0  0
    5.5935   -8.6419   17.4234 C   0  0  0  0  0  0  0  0  0  0  0  0
   13.0726   -4.6648   23.3394 O   0  0  0  0  0  0  0  0  0  0  0  0
    8.5955   -6.0705   17.3996 C   0  0  0  0  0  0  0  0  0  0  0  0
    4.6223   -8.3832   16.5030 C   0  0  0  0  0  0  0  0  0  0  0  0
   12.4690   -5.2624   19.9024 C   0  0  0  0  0  0  0  0  0  0  0  0
    3.2548   -9.9919   17.4189 C   0  0  0  0  0  0  0  0  0  0  0  0
   12.4767   -4.7393   22.1790 C   0  0  0  0  0  0  0  0  0  0  0  0
    7.8593   -5.3772   15.3569 N   0  0  0  0  0  0  0  0  0  0  0  0
    7.4412   -6.9038   16.9283 C   0  0  0  0  0  0  0  0  0  0  0  0
  1 21  4  0
  1 23  4  0
  2  5  1  0
  2 13  4  0
  2 16  4  0
  3  6  4  0
  3  7  4  0
  4 13  4  0
  4 19  4  0
  4 24  4  0
  6 23  4  0
  7 16  1  0
  7 21  4  0
  8 18  1  0
  9 20  4  0
  9 22  4  0
 10 17  1  0
 10 25  1  0
 11 16  4  0
 11 19  4  0
 12 15  4  0
 12 22  4  0
 14 24  4  0
 14 25  4  0
 15 17  4  0
 17 20  4  0
 18 23  1  0
 19 25  4  0
M  END
$$$$

 Created by Python create_sdf_string function

 25 28  0  0  0  0  0  0  0  0999 V2000
   13.1533   -5.2399   21.0682 C   0  0  0  0  0  0  0  0  0  0  0  0
   10.4729   -4.0295   17.6135 C   0  0  0  0  0  0  0  0  0  0  0  0
   10.4789   -4.3641   20.9564 C   0  0  0  0  0  0  0  0  0  0  0  0
    8.7421   -5.1412   16.3650 C   0  0  0  0  0  0  0  0  0  0  0  0
   11.4353   -2.9204   17.8044 C   0  0  0  0  0  0  0  0  0  0  0  0
   11.1529   -4.3028   22.1277 C   0  0  0  0  0  0  0  0  0  0  0  0
   11.1290   -4.8502   19.8052 C   0  0  0  0  0  0  0  0  0  0  0  0
   12.4329   -4.2159   24.4224 C   0  0  0  0  0  0  0  0  0  0  0  0
    3.4740   -9.0387   16.5022 C   0  0  0  0  0  0  0  0  0  0  0  0
    6.8384   -7.9290   17.5282 N   0  0  0  0  0  0  0  0  0  0  0  0
    9.4126   -5.9853   18.4899 C   0  0  0  0  0  0  0  0  0  0  0  0
    4.2064  -10.3242   18.3302 C   0  0  0  0  0  0  0  0  0  0  0  0
    9.6599   -4.1551   16.4796 N   0  0  0  0  0  0  0  0  0  0  0  0
    7.0644   -6.4612   15.7375 N   0  0  0  0  0  0  0  0  0  0  0  0
    5.3549   -9.6322   18.3190 C   0  0  0  0  0  0  0  0  0  0  0  0
   10.3704   -4.9638   18.6510 C   0  0  0  0  0  0  0  0  0  0  0  0
    5.5935   -8.6419   17.4234 C   0  0  0  0  0  0  0  0  0  0  0  0
   13.0726   -4.6648   23.3394 O   0  0  0  0  0  0  0  0  0  0  0  0
    8.5955   -6.0705   17.3996 C   0  0  0  0  0  0  0  0  0  0  0  0
    4.6223   -8.3832   16.5030 C   0  0  0  0  0  0  0  0  0  0  0  0
   12.4690   -5.2624   19.9024 C   0  0  0  0  0  0  0  0  0  0  0  0
    3.2548   -9.9919   17.4189 C   0  0  0  0  0  0  0  0  0  0  0  0
   12.4767   -4.7393   22.1790 C   0  0  0  0  0  0  0  0  0  0  0  0
    7.8593   -5.3772   15.3569 N   0  0  0  0  0  0  0  0  0  0  0  0
    7.4412   -6.9038   16.9283 C   0  0  0  0  0  0  0  0  0  0  0  0
  1 21  4  0
  1 23  4  0
  2  5  1  0
  2 13  4  0
  2 16  4  0
  3  6  4  0
  3  7  4  0
  4 13  4  0
  4 19  4  0
  4 24  4  0
  6 23  4  0
  7 16  1  0
  7 21  4  0
  8 18  1  0
  9 20  4  0
  9 22  4  0
 10 17  1  0
 10 25  1  0
 11 16  4  0
 11 19  4  0
 12 15  4  0
 12 22  4  0
 14 24  4  0
 14 25  4  0
 15 17  4  0
 17 20  4  0
 18 23  1  0
 19 25  4  0
M  END
$$$$

 Created by Python create_sdf_string function

 25 28  0  0  0  0  0  0  0  0999 V2000
   13.1533   -5.2399   21.0682 C   0  0  0  0  0  0  0  0  0  0  0  0
   10.4729   -4.0295   17.6135 C   0  0  0  0  0  0  0  0  0  0  0  0
   10.4789   -4.3641   20.9564 C   0  0  0  0  0  0  0  0  0  0  0  0
    8.7421   -5.1412   16.3650 C   0  0  0  0  0  0  0  0  0  0  0  0
   11.4353   -2.9204   17.8044 C   0  0  0  0  0  0  0  0  0  0  0  0
   11.1529   -4.3028   22.1277 C   0  0  0  0  0  0  0  0  0  0  0  0
   11.1290   -4.8502   19.8052 C   0  0  0  0  0  0  0  0  0  0  0  0
   12.4329   -4.2159   24.4224 C   0  0  0  0  0  0  0  0  0  0  0  0
    3.4740   -9.0387   16.5022 C   0  0  0  0  0  0  0  0  0  0  0  0
    6.8384   -7.9290   17.5282 N   0  0  0  0  0  0  0  0  0  0  0  0
    9.4126   -5.9853   18.4899 C   0  0  0  0  0  0  0  0  0  0  0  0
    4.2064  -10.3242   18.3302 C   0  0  0  0  0  0  0  0  0  0  0  0
    9.6599   -4.1551   16.4796 N   0  0  0  0  0  0  0  0  0  0  0  0
    7.0644   -6.4612   15.7375 N   0  0  0  0  0  0  0  0  0  0  0  0
    5.3549   -9.6322   18.3190 C   0  0  0  0  0  0  0  0  0  0  0  0
   10.3704   -4.9638   18.6510 C   0  0  0  0  0  0  0  0  0  0  0  0
    5.5935   -8.6419   17.4234 C   0  0  0  0  0  0  0  0  0  0  0  0
   13.0726   -4.6648   23.3394 O   0  0  0  0  0  0  0  0  0  0  0  0
    8.5955   -6.0705   17.3996 C   0  0  0  0  0  0  0  0  0  0  0  0
    4.6223   -8.3832   16.5030 C   0  0  0  0  0  0  0  0  0  0  0  0
   12.4690   -5.2624   19.9024 C   0  0  0  0  0  0  0  0  0  0  0  0
    3.2548   -9.9919   17.4189 C   0  0  0  0  0  0  0  0  0  0  0  0
   12.4767   -4.7393   22.1790 C   0  0  0  0  0  0  0  0  0  0  0  0
    7.8593   -5.3772   15.3569 N   0  0  0  0  0  0  0  0  0  0  0  0
    7.4412   -6.9038   16.9283 C   0  0  0  0  0  0  0  0  0  0  0  0
  1 21  4  0
  1 23  4  0
  2  5  1  0
  2 13  4  0
  2 16  4  0
  3  6  4  0
  3  7  4  0
  4 13  4  0
  4 19  4  0
  4 24  4  0
  6 23  4  0
  7 16  1  0
  7 21  4  0
  8 18  1  0
  9 20  4  0
  9 22  4  0
 10 17  1  0
 10 25  1  0
 11 16  4  0
 11 19  4  0
 12 15  4  0
 12 22  4  0
 14 24  4  0
 14 25  4  0
 15 17  4  0
 17 20  4  0
 18 23  1  0
 19 25  4  0
M  END
$$$$

 Created by Python create_sdf_string function

 25 28  0  0  0  0  0  0  0  0999 V2000
   13.1533   -5.2399   21.0682 C   0  0  0  0  0  0  0  0  0  0  0  0
   10.4729   -4.0295   17.6135 C   0  0  0  0  0  0  0  0  0  0  0  0
   10.4789   -4.3641   20.9564 C   0  0  0  0  0  0  0  0  0  0  0  0
    8.7421   -5.1412   16.3650 C   0  0  0  0  0  0  0  0  0  0  0  0
   11.4353   -2.9204   17.8044 C   0  0  0  0  0  0  0  0  0  0  0  0
   11.1529   -4.3028   22.1277 C   0  0  0  0  0  0  0  0  0  0  0  0
   11.1290   -4.8502   19.8052 C   0  0  0  0  0  0  0  0  0  0  0  0
   12.4329   -4.2159   24.4224 C   0  0  0  0  0  0  0  0  0  0  0  0
    3.4740   -9.0387   16.5022 C   0  0  0  0  0  0  0  0  0  0  0  0
    6.8384   -7.9290   17.5282 N   0  0  0  0  0  0  0  0  0  0  0  0
    9.4126   -5.9853   18.4899 C   0  0  0  0  0  0  0  0  0  0  0  0
    4.2064  -10.3242   18.3302 C   0  0  0  0  0  0  0  0  0  0  0  0
    9.6599   -4.1551   16.4796 N   0  0  0  0  0  0  0  0  0  0  0  0
    7.0644   -6.4612   15.7375 N   0  0  0  0  0  0  0  0  0  0  0  0
    5.3549   -9.6322   18.3190 C   0  0  0  0  0  0  0  0  0  0  0  0
   10.3704   -4.9638   18.6510 C   0  0  0  0  0  0  0  0  0  0  0  0
    5.5935   -8.6419   17.4234 C   0  0  0  0  0  0  0  0  0  0  0  0
   13.0726   -4.6648   23.3394 O   0  0  0  0  0  0  0  0  0  0  0  0
    8.5955   -6.0705   17.3996 C   0  0  0  0  0  0  0  0  0  0  0  0
    4.6223   -8.3832   16.5030 C   0  0  0  0  0  0  0  0  0  0  0  0
   12.4690   -5.2624   19.9024 C   0  0  0  0  0  0  0  0  0  0  0  0
    3.2548   -9.9919   17.4189 C   0  0  0  0  0  0  0  0  0  0  0  0
   12.4767   -4.7393   22.1790 C   0  0  0  0  0  0  0  0  0  0  0  0
    7.8593   -5.3772   15.3569 N   0  0  0  0  0  0  0  0  0  0  0  0
    7.4412   -6.9038   16.9283 C   0  0  0  0  0  0  0  0  0  0  0  0
  1 21  4  0
  1 23  4  0
  2  5  1  0
  2 13  4  0
  2 16  4  0
  3  6  4  0
  3  7  4  0
  4 13  4  0
  4 19  4  0
  4 24  4  0
  6 23  4  0
  7 16  1  0
  7 21  4  0
  8 18  1  0
  9 20  4  0
  9 22  4  0
 10 17  1  0
 10 25  1  0
 11 16  4  0
 11 19  4  0
 12 15  4  0
 12 22  4  0
 14 24  4  0
 14 25  4  0
 15 17  4  0
 17 20  4  0
 18 23  1  0
 19 25  4  0
M  END
$$$$

 Created by Python create_sdf_string function

 25 28  0  0  0  0  0  0  0  0999 V2000
   13.1533   -5.2399   21.0682 C   0  0  0  0  0  0  0  0  0  0  0  0
   10.4729   -4.0295   17.6135 C   0  0  0  0  0  0  0  0  0  0  0  0
   10.4789   -4.3641   20.9564 C   0  0  0  0  0  0  0  0  0  0  0  0
    8.7421   -5.1412   16.3650 C   0  0  0  0  0  0  0  0  0  0  0  0
   11.4353   -2.9204   17.8044 C   0  0  0  0  0  0  0  0  0  0  0  0
   11.1529   -4.3028   22.1277 C   0  0  0  0  0  0  0  0  0  0  0  0
   11.1290   -4.8502   19.8052 C   0  0  0  0  0  0  0  0  0  0  0  0
   12.4329   -4.2159   24.4224 C   0  0  0  0  0  0  0  0  0  0  0  0
    3.4740   -9.0387   16.5022 C   0  0  0  0  0  0  0  0  0  0  0  0
    6.8384   -7.9290   17.5282 N   0  0  0  0  0  0  0  0  0  0  0  0
    9.4126   -5.9853   18.4899 C   0  0  0  0  0  0  0  0  0  0  0  0
    4.2064  -10.3242   18.3302 C   0  0  0  0  0  0  0  0  0  0  0  0
    9.6599   -4.1551   16.4796 N   0  0  0  0  0  0  0  0  0  0  0  0
    7.0644   -6.4612   15.7375 N   0  0  0  0  0  0  0  0  0  0  0  0
    5.3549   -9.6322   18.3190 C   0  0  0  0  0  0  0  0  0  0  0  0
   10.3704   -4.9638   18.6510 C   0  0  0  0  0  0  0  0  0  0  0  0
    5.5935   -8.6419   17.4234 C   0  0  0  0  0  0  0  0  0  0  0  0
   13.0726   -4.6648   23.3394 O   0  0  0  0  0  0  0  0  0  0  0  0
    8.5955   -6.0705   17.3996 C   0  0  0  0  0  0  0  0  0  0  0  0
    4.6223   -8.3832   16.5030 C   0  0  0  0  0  0  0  0  0  0  0  0
   12.4690   -5.2624   19.9024 C   0  0  0  0  0  0  0  0  0  0  0  0
    3.2548   -9.9919   17.4189 C   0  0  0  0  0  0  0  0  0  0  0  0
   12.4767   -4.7393   22.1790 C   0  0  0  0  0  0  0  0  0  0  0  0
    7.8593   -5.3772   15.3569 N   0  0  0  0  0  0  0  0  0  0  0  0
    7.4412   -6.9038   16.9283 C   0  0  0  0  0  0  0  0  0  0  0  0
  1 21  4  0
  1 23  4  0
  2  5  1  0
  2 13  4  0
  2 16  4  0
  3  6  4  0
  3  7  4  0
  4 13  4  0
  4 19  4  0
  4 24  4  0
  6 23  4  0
  7 16  1  0
  7 21  4  0
  8 18  1  0
  9 20  4  0
  9 22  4  0
 10 17  1  0
 10 25  1  0
 11 16  4  0
 11 19  4  0
 12 15  4  0
 12 22  4  0
 14 24  4  0
 14 25  4  0
 15 17  4  0
 17 20  4  0
 18 23  1  0
 19 25  4  0
M  END
$$$$

 Created by Python create_sdf_string function

 25 28  0  0  0  0  0  0  0  0999 V2000
   13.1533   -5.2399   21.0682 C   0  0  0  0  0  0  0  0  0  0  0  0
   10.4729   -4.0295   17.6135 C   0  0  0  0  0  0  0  0  0  0  0  0
   10.4789   -4.3641   20.9564 C   0  0  0  0  0  0  0  0  0  0  0  0
    8.7421   -5.1412   16.3650 C   0  0  0  0  0  0  0  0  0  0  0  0
   11.4353   -2.9204   17.8044 C   0  0  0  0  0  0  0  0  0  0  0  0
   11.1529   -4.3028   22.1277 C   0  0  0  0  0  0  0  0  0  0  0  0
   11.1290   -4.8502   19.8052 C   0  0  0  0  0  0  0  0  0  0  0  0
   12.4329   -4.2159   24.4224 C   0  0  0  0  0  0  0  0  0  0  0  0
    3.4740   -9.0387   16.5022 C   0  0  0  0  0  0  0  0  0  0  0  0
    6.8384   -7.9290   17.5282 N   0  0  0  0  0  0  0  0  0  0  0  0
    9.4126   -5.9853   18.4899 C   0  0  0  0  0  0  0  0  0  0  0  0
    4.2064  -10.3242   18.3302 C   0  0  0  0  0  0  0  0  0  0  0  0
    9.6599   -4.1551   16.4796 N   0  0  0  0  0  0  0  0  0  0  0  0
    7.0644   -6.4612   15.7375 N   0  0  0  0  0  0  0  0  0  0  0  0
    5.3549   -9.6322   18.3190 C   0  0  0  0  0  0  0  0  0  0  0  0
   10.3704   -4.9638   18.6510 C   0  0  0  0  0  0  0  0  0  0  0  0
    5.5935   -8.6419   17.4234 C   0  0  0  0  0  0  0  0  0  0  0  0
   13.0726   -4.6648   23.3394 O   0  0  0  0  0  0  0  0  0  0  0  0
    8.5955   -6.0705   17.3996 C   0  0  0  0  0  0  0  0  0  0  0  0
    4.6223   -8.3832   16.5030 C   0  0  0  0  0  0  0  0  0  0  0  0
   12.4690   -5.2624   19.9024 C   0  0  0  0  0  0  0  0  0  0  0  0
    3.2548   -9.9919   17.4189 C   0  0  0  0  0  0  0  0  0  0  0  0
   12.4767   -4.7393   22.1790 C   0  0  0  0  0  0  0  0  0  0  0  0
    7.8593   -5.3772   15.3569 N   0  0  0  0  0  0  0  0  0  0  0  0
    7.4412   -6.9038   16.9283 C   0  0  0  0  0  0  0  0  0  0  0  0
  1 21  4  0
  1 23  4  0
  2  5  1  0
  2 13  4  0
  2 16  4  0
  3  6  4  0
  3  7  4  0
  4 13  4  0
  4 19  4  0
  4 24  4  0
  6 23  4  0
  7 16  1  0
  7 21  4  0
  8 18  1  0
  9 20  4  0
  9 22  4  0
 10 17  1  0
 10 25  1  0
 11 16  4  0
 11 19  4  0
 12 15  4  0
 12 22  4  0
 14 24  4  0
 14 25  4  0
 15 17  4  0
 17 20  4  0
 18 23  1  0
 19 25  4  0
M  END
$$$$

 Created by Python create_sdf_string function

 25 28  0  0  0  0  0  0  0  0999 V2000
   13.1533   -5.2399   21.0682 C   0  0  0  0  0  0  0  0  0  0  0  0
   10.4729   -4.0295   17.6135 C   0  0  0  0  0  0  0  0  0  0  0  0
   10.4789   -4.3641   20.9564 C   0  0  0  0  0  0  0  0  0  0  0  0
    8.7421   -5.1412   16.3650 C   0  0  0  0  0  0  0  0  0  0  0  0
   11.4353   -2.9204   17.8044 C   0  0  0  0  0  0  0  0  0  0  0  0
   11.1529   -4.3028   22.1277 C   0  0  0  0  0  0  0  0  0  0  0  0
   11.1290   -4.8502   19.8052 C   0  0  0  0  0  0  0  0  0  0  0  0
   12.4329   -4.2159   24.4224 C   0  0  0  0  0  0  0  0  0  0  0  0
    3.4740   -9.0387   16.5022 C   0  0  0  0  0  0  0  0  0  0  0  0
    6.8384   -7.9290   17.5282 N   0  0  0  0  0  0  0  0  0  0  0  0
    9.4126   -5.9853   18.4899 C   0  0  0  0  0  0  0  0  0  0  0  0
    4.2064  -10.3242   18.3302 C   0  0  0  0  0  0  0  0  0  0  0  0
    9.6599   -4.1551   16.4796 N   0  0  0  0  0  0  0  0  0  0  0  0
    7.0644   -6.4612   15.7375 N   0  0  0  0  0  0  0  0  0  0  0  0
    5.3549   -9.6322   18.3190 C   0  0  0  0  0  0  0  0  0  0  0  0
   10.3704   -4.9638   18.6510 C   0  0  0  0  0  0  0  0  0  0  0  0
    5.5935   -8.6419   17.4234 C   0  0  0  0  0  0  0  0  0  0  0  0
   13.0726   -4.6648   23.3394 O   0  0  0  0  0  0  0  0  0  0  0  0
    8.5955   -6.0705   17.3996 C   0  0  0  0  0  0  0  0  0  0  0  0
    4.6223   -8.3832   16.5030 C   0  0  0  0  0  0  0  0  0  0  0  0
   12.4690   -5.2624   19.9024 C   0  0  0  0  0  0  0  0  0  0  0  0
    3.2548   -9.9919   17.4189 C   0  0  0  0  0  0  0  0  0  0  0  0
   12.4767   -4.7393   22.1790 C   0  0  0  0  0  0  0  0  0  0  0  0
    7.8593   -5.3772   15.3569 N   0  0  0  0  0  0  0  0  0  0  0  0
    7.4412   -6.9038   16.9283 C   0  0  0  0  0  0  0  0  0  0  0  0
  1 21  4  0
  1 23  4  0
  2  5  1  0
  2 13  4  0
  2 16  4  0
  3  6  4  0
  3  7  4  0
  4 13  4  0
  4 19  4  0
  4 24  4  0
  6 23  4  0
  7 16  1  0
  7 21  4  0
  8 18  1  0
  9 20  4  0
  9 22  4  0
 10 17  1  0
 10 25  1  0
 11 16  4  0
 11 19  4  0
 12 15  4  0
 12 22  4  0
 14 24  4  0
 14 25  4  0
 15 17  4  0
 17 20  4  0
 18 23  1  0
 19 25  4  0
M  END
$$$$

 Created by Python create_sdf_string function

 25 28  0  0  0  0  0  0  0  0999 V2000
   13.1533   -5.2399   21.0682 C   0  0  0  0  0  0  0  0  0  0  0  0
   10.4729   -4.0295   17.6135 C   0  0  0  0  0  0  0  0  0  0  0  0
   10.4789   -4.3641   20.9564 C   0  0  0  0  0  0  0  0  0  0  0  0
    8.7421   -5.1412   16.3650 C   0  0  0  0  0  0  0  0  0  0  0  0
   11.4353   -2.9204   17.8044 C   0  0  0  0  0  0  0  0  0  0  0  0
   11.1529   -4.3028   22.1277 C   0  0  0  0  0  0  0  0  0  0  0  0
   11.1290   -4.8502   19.8052 C   0  0  0  0  0  0  0  0  0  0  0  0
   12.4329   -4.2159   24.4224 C   0  0  0  0  0  0  0  0  0  0  0  0
    3.4740   -9.0387   16.5022 C   0  0  0  0  0  0  0  0  0  0  0  0
    6.8384   -7.9290   17.5282 N   0  0  0  0  0  0  0  0  0  0  0  0
    9.4126   -5.9853   18.4899 C   0  0  0  0  0  0  0  0  0  0  0  0
    4.2064  -10.3242   18.3302 C   0  0  0  0  0  0  0  0  0  0  0  0
    9.6599   -4.1551   16.4796 N   0  0  0  0  0  0  0  0  0  0  0  0
    7.0644   -6.4612   15.7375 N   0  0  0  0  0  0  0  0  0  0  0  0
    5.3549   -9.6322   18.3190 C   0  0  0  0  0  0  0  0  0  0  0  0
   10.3704   -4.9638   18.6510 C   0  0  0  0  0  0  0  0  0  0  0  0
    5.5935   -8.6419   17.4234 C   0  0  0  0  0  0  0  0  0  0  0  0
   13.0726   -4.6648   23.3394 O   0  0  0  0  0  0  0  0  0  0  0  0
    8.5955   -6.0705   17.3996 C   0  0  0  0  0  0  0  0  0  0  0  0
    4.6223   -8.3832   16.5030 C   0  0  0  0  0  0  0  0  0  0  0  0
   12.4690   -5.2624   19.9024 C   0  0  0  0  0  0  0  0  0  0  0  0
    3.2548   -9.9919   17.4189 C   0  0  0  0  0  0  0  0  0  0  0  0
   12.4767   -4.7393   22.1790 C   0  0  0  0  0  0  0  0  0  0  0  0
    7.8593   -5.3772   15.3569 N   0  0  0  0  0  0  0  0  0  0  0  0
    7.4412   -6.9038   16.9283 C   0  0  0  0  0  0  0  0  0  0  0  0
  1 21  4  0
  1 23  4  0
  2  5  1  0
  2 13  4  0
  2 16  4  0
  3  6  4  0
  3  7  4  0
  4 13  4  0
  4 19  4  0
  4 24  4  0
  6 23  4  0
  7 16  1  0
  7 21  4  0
  8 18  1  0
  9 20  4  0
  9 22  4  0
 10 17  1  0
 10 25  1  0
 11 16  4  0
 11 19  4  0
 12 15  4  0
 12 22  4  0
 14 24  4  0
 14 25  4  0
 15 17  4  0
 17 20  4  0
 18 23  1  0
 19 25  4  0
M  END
$$$$

 Created by Python create_sdf_string function

 25 28  0  0  0  0  0  0  0  0999 V2000
   13.1533   -5.2399   21.0682 C   0  0  0  0  0  0  0  0  0  0  0  0
   10.4729   -4.0295   17.6135 C   0  0  0  0  0  0  0  0  0  0  0  0
   10.4789   -4.3641   20.9564 C   0  0  0  0  0  0  0  0  0  0  0  0
    8.7421   -5.1412   16.3650 C   0  0  0  0  0  0  0  0  0  0  0  0
   11.4353   -2.9204   17.8044 C   0  0  0  0  0  0  0  0  0  0  0  0
   11.1529   -4.3028   22.1277 C   0  0  0  0  0  0  0  0  0  0  0  0
   11.1290   -4.8502   19.8052 C   0  0  0  0  0  0  0  0  0  0  0  0
   12.4329   -4.2159   24.4224 C   0  0  0  0  0  0  0  0  0  0  0  0
    3.4740   -9.0387   16.5022 C   0  0  0  0  0  0  0  0  0  0  0  0
    6.8384   -7.9290   17.5282 N   0  0  0  0  0  0  0  0  0  0  0  0
    9.4126   -5.9853   18.4899 C   0  0  0  0  0  0  0  0  0  0  0  0
    4.2064  -10.3242   18.3302 C   0  0  0  0  0  0  0  0  0  0  0  0
    9.6599   -4.1551   16.4796 N   0  0  0  0  0  0  0  0  0  0  0  0
    7.0644   -6.4612   15.7375 N   0  0  0  0  0  0  0  0  0  0  0  0
    5.3549   -9.6322   18.3190 C   0  0  0  0  0  0  0  0  0  0  0  0
   10.3704   -4.9638   18.6510 C   0  0  0  0  0  0  0  0  0  0  0  0
    5.5935   -8.6419   17.4234 C   0  0  0  0  0  0  0  0  0  0  0  0
   13.0726   -4.6648   23.3394 O   0  0  0  0  0  0  0  0  0  0  0  0
    8.5955   -6.0705   17.3996 C   0  0  0  0  0  0  0  0  0  0  0  0
    4.6223   -8.3832   16.5030 C   0  0  0  0  0  0  0  0  0  0  0  0
   12.4690   -5.2624   19.9024 C   0  0  0  0  0  0  0  0  0  0  0  0
    3.2548   -9.9919   17.4189 C   0  0  0  0  0  0  0  0  0  0  0  0
   12.4767   -4.7393   22.1790 C   0  0  0  0  0  0  0  0  0  0  0  0
    7.8593   -5.3772   15.3569 N   0  0  0  0  0  0  0  0  0  0  0  0
    7.4412   -6.9038   16.9283 C   0  0  0  0  0  0  0  0  0  0  0  0
  1 21  4  0
  1 23  4  0
  2  5  1  0
  2 13  4  0
  2 16  4  0
  3  6  4  0
  3  7  4  0
  4 13  4  0
  4 19  4  0
  4 24  4  0
  6 23  4  0
  7 16  1  0
  7 21  4  0
  8 18  1  0
  9 20  4  0
  9 22  4  0
 10 17  1  0
 10 25  1  0
 11 16  4  0
 11 19  4  0
 12 15  4  0
 12 22  4  0
 14 24  4  0
 14 25  4  0
 15 17  4  0
 17 20  4  0
 18 23  1  0
 19 25  4  0
M  END
$$$$

 Created by Python create_sdf_string function

 25 28  0  0  0  0  0  0  0  0999 V2000
   13.1533   -5.2399   21.0682 C   0  0  0  0  0  0  0  0  0  0  0  0
   10.4729   -4.0295   17.6135 C   0  0  0  0  0  0  0  0  0  0  0  0
   10.4789   -4.3641   20.9564 C   0  0  0  0  0  0  0  0  0  0  0  0
    8.7421   -5.1412   16.3650 C   0  0  0  0  0  0  0  0  0  0  0  0
   11.4353   -2.9204   17.8044 C   0  0  0  0  0  0  0  0  0  0  0  0
   11.1529   -4.3028   22.1277 C   0  0  0  0  0  0  0  0  0  0  0  0
   11.1290   -4.8502   19.8052 C   0  0  0  0  0  0  0  0  0  0  0  0
   12.4329   -4.2159   24.4224 C   0  0  0  0  0  0  0  0  0  0  0  0
    3.4740   -9.0387   16.5022 C   0  0  0  0  0  0  0  0  0  0  0  0
    6.8384   -7.9290   17.5282 N   0  0  0  0  0  0  0  0  0  0  0  0
    9.4126   -5.9853   18.4899 C   0  0  0  0  0  0  0  0  0  0  0  0
    4.2064  -10.3242   18.3302 C   0  0  0  0  0  0  0  0  0  0  0  0
    9.6599   -4.1551   16.4796 N   0  0  0  0  0  0  0  0  0  0  0  0
    7.0644   -6.4612   15.7375 N   0  0  0  0  0  0  0  0  0  0  0  0
    5.3549   -9.6322   18.3190 C   0  0  0  0  0  0  0  0  0  0  0  0
   10.3704   -4.9638   18.6510 C   0  0  0  0  0  0  0  0  0  0  0  0
    5.5935   -8.6419   17.4234 C   0  0  0  0  0  0  0  0  0  0  0  0
   13.0726   -4.6648   23.3394 O   0  0  0  0  0  0  0  0  0  0  0  0
    8.5955   -6.0705   17.3996 C   0  0  0  0  0  0  0  0  0  0  0  0
    4.6223   -8.3832   16.5030 C   0  0  0  0  0  0  0  0  0  0  0  0
   12.4690   -5.2624   19.9024 C   0  0  0  0  0  0  0  0  0  0  0  0
    3.2548   -9.9919   17.4189 C   0  0  0  0  0  0  0  0  0  0  0  0
   12.4767   -4.7393   22.1790 C   0  0  0  0  0  0  0  0  0  0  0  0
    7.8593   -5.3772   15.3569 N   0  0  0  0  0  0  0  0  0  0  0  0
    7.4412   -6.9038   16.9283 C   0  0  0  0  0  0  0  0  0  0  0  0
  1 21  4  0
  1 23  4  0
  2  5  1  0
  2 13  4  0
  2 16  4  0
  3  6  4  0
  3  7  4  0
  4 13  4  0
  4 19  4  0
  4 24  4  0
  6 23  4  0
  7 16  1  0
  7 21  4  0
  8 18  1  0
  9 20  4  0
  9 22  4  0
 10 17  1  0
 10 25  1  0
 11 16  4  0
 11 19  4  0
 12 15  4  0
 12 22  4  0
 14 24  4  0
 14 25  4  0
 15 17  4  0
 17 20  4  0
 18 23  1  0
 19 25  4  0
M  END
$$$$

 Created by Python create_sdf_string function

 25 28  0  0  0  0  0  0  0  0999 V2000
   13.1533   -5.2399   21.0682 C   0  0  0  0  0  0  0  0  0  0  0  0
   10.4729   -4.0295   17.6135 C   0  0  0  0  0  0  0  0  0  0  0  0
   10.4789   -4.3641   20.9564 C   0  0  0  0  0  0  0  0  0  0  0  0
    8.7421   -5.1412   16.3650 C   0  0  0  0  0  0  0  0  0  0  0  0
   11.4353   -2.9204   17.8044 C   0  0  0  0  0  0  0  0  0  0  0  0
   11.1529   -4.3028   22.1277 C   0  0  0  0  0  0  0  0  0  0  0  0
   11.1290   -4.8502   19.8052 C   0  0  0  0  0  0  0  0  0  0  0  0
   12.4329   -4.2159   24.4224 C   0  0  0  0  0  0  0  0  0  0  0  0
    3.4740   -9.0387   16.5022 C   0  0  0  0  0  0  0  0  0  0  0  0
    6.8384   -7.9290   17.5282 N   0  0  0  0  0  0  0  0  0  0  0  0
    9.4126   -5.9853   18.4899 C   0  0  0  0  0  0  0  0  0  0  0  0
    4.2064  -10.3242   18.3302 C   0  0  0  0  0  0  0  0  0  0  0  0
    9.6599   -4.1551   16.4796 N   0  0  0  0  0  0  0  0  0  0  0  0
    7.0644   -6.4612   15.7375 N   0  0  0  0  0  0  0  0  0  0  0  0
    5.3549   -9.6322   18.3190 C   0  0  0  0  0  0  0  0  0  0  0  0
   10.3704   -4.9638   18.6510 C   0  0  0  0  0  0  0  0  0  0  0  0
    5.5935   -8.6419   17.4234 C   0  0  0  0  0  0  0  0  0  0  0  0
   13.0726   -4.6648   23.3394 O   0  0  0  0  0  0  0  0  0  0  0  0
    8.5955   -6.0705   17.3996 C   0  0  0  0  0  0  0  0  0  0  0  0
    4.6223   -8.3832   16.5030 C   0  0  0  0  0  0  0  0  0  0  0  0
   12.4690   -5.2624   19.9024 C   0  0  0  0  0  0  0  0  0  0  0  0
    3.2548   -9.9919   17.4189 C   0  0  0  0  0  0  0  0  0  0  0  0
   12.4767   -4.7393   22.1790 C   0  0  0  0  0  0  0  0  0  0  0  0
    7.8593   -5.3772   15.3569 N   0  0  0  0  0  0  0  0  0  0  0  0
    7.4412   -6.9038   16.9283 C   0  0  0  0  0  0  0  0  0  0  0  0
  1 21  4  0
  1 23  4  0
  2  5  1  0
  2 13  4  0
  2 16  4  0
  3  6  4  0
  3  7  4  0
  4 13  4  0
  4 19  4  0
  4 24  4  0
  6 23  4  0
  7 16  1  0
  7 21  4  0
  8 18  1  0
  9 20  4  0
  9 22  4  0
 10 17  1  0
 10 25  1  0
 11 16  4  0
 11 19  4  0
 12 15  4  0
 12 22  4  0
 14 24  4  0
 14 25  4  0
 15 17  4  0
 17 20  4  0
 18 23  1  0
 19 25  4  0
M  END
$$$$

 Created by Python create_sdf_string function

 25 28  0  0  0  0  0  0  0  0999 V2000
   13.1533   -5.2399   21.0682 C   0  0  0  0  0  0  0  0  0  0  0  0
   10.4729   -4.0295   17.6135 C   0  0  0  0  0  0  0  0  0  0  0  0
   10.4789   -4.3641   20.9564 C   0  0  0  0  0  0  0  0  0  0  0  0
    8.7421   -5.1412   16.3650 C   0  0  0  0  0  0  0  0  0  0  0  0
   11.4353   -2.9204   17.8044 C   0  0  0  0  0  0  0  0  0  0  0  0
   11.1529   -4.3028   22.1277 C   0  0  0  0  0  0  0  0  0  0  0  0
   11.1290   -4.8502   19.8052 C   0  0  0  0  0  0  0  0  0  0  0  0
   12.4329   -4.2159   24.4224 C   0  0  0  0  0  0  0  0  0  0  0  0
    3.4740   -9.0387   16.5022 C   0  0  0  0  0  0  0  0  0  0  0  0
    6.8384   -7.9290   17.5282 N   0  0  0  0  0  0  0  0  0  0  0  0
    9.4126   -5.9853   18.4899 C   0  0  0  0  0  0  0  0  0  0  0  0
    4.2064  -10.3242   18.3302 C   0  0  0  0  0  0  0  0  0  0  0  0
    9.6599   -4.1551   16.4796 N   0  0  0  0  0  0  0  0  0  0  0  0
    7.0644   -6.4612   15.7375 N   0  0  0  0  0  0  0  0  0  0  0  0
    5.3549   -9.6322   18.3190 C   0  0  0  0  0  0  0  0  0  0  0  0
   10.3704   -4.9638   18.6510 C   0  0  0  0  0  0  0  0  0  0  0  0
    5.5935   -8.6419   17.4234 C   0  0  0  0  0  0  0  0  0  0  0  0
   13.0726   -4.6648   23.3394 O   0  0  0  0  0  0  0  0  0  0  0  0
    8.5955   -6.0705   17.3996 C   0  0  0  0  0  0  0  0  0  0  0  0
    4.6223   -8.3832   16.5030 C   0  0  0  0  0  0  0  0  0  0  0  0
   12.4690   -5.2624   19.9024 C   0  0  0  0  0  0  0  0  0  0  0  0
    3.2548   -9.9919   17.4189 C   0  0  0  0  0  0  0  0  0  0  0  0
   12.4767   -4.7393   22.1790 C   0  0  0  0  0  0  0  0  0  0  0  0
    7.8593   -5.3772   15.3569 N   0  0  0  0  0  0  0  0  0  0  0  0
    7.4412   -6.9038   16.9283 C   0  0  0  0  0  0  0  0  0  0  0  0
  1 21  4  0
  1 23  4  0
  2  5  1  0
  2 13  4  0
  2 16  4  0
  3  6  4  0
  3  7  4  0
  4 13  4  0
  4 19  4  0
  4 24  4  0
  6 23  4  0
  7 16  1  0
  7 21  4  0
  8 18  1  0
  9 20  4  0
  9 22  4  0
 10 17  1  0
 10 25  1  0
 11 16  4  0
 11 19  4  0
 12 15  4  0
 12 22  4  0
 14 24  4  0
 14 25  4  0
 15 17  4  0
 17 20  4  0
 18 23  1  0
 19 25  4  0
M  END
$$$$

 Created by Python create_sdf_string function

 25 28  0  0  0  0  0  0  0  0999 V2000
   13.1533   -5.2399   21.0682 C   0  0  0  0  0  0  0  0  0  0  0  0
   10.4729   -4.0295   17.6135 C   0  0  0  0  0  0  0  0  0  0  0  0
   10.4789   -4.3641   20.9564 C   0  0  0  0  0  0  0  0  0  0  0  0
    8.7421   -5.1412   16.3650 C   0  0  0  0  0  0  0  0  0  0  0  0
   11.4353   -2.9204   17.8044 C   0  0  0  0  0  0  0  0  0  0  0  0
   11.1529   -4.3028   22.1277 C   0  0  0  0  0  0  0  0  0  0  0  0
   11.1290   -4.8502   19.8052 C   0  0  0  0  0  0  0  0  0  0  0  0
   12.4329   -4.2159   24.4224 C   0  0  0  0  0  0  0  0  0  0  0  0
    3.4740   -9.0387   16.5022 C   0  0  0  0  0  0  0  0  0  0  0  0
    6.8384   -7.9290   17.5282 N   0  0  0  0  0  0  0  0  0  0  0  0
    9.4126   -5.9853   18.4899 C   0  0  0  0  0  0  0  0  0  0  0  0
    4.2064  -10.3242   18.3302 C   0  0  0  0  0  0  0  0  0  0  0  0
    9.6599   -4.1551   16.4796 N   0  0  0  0  0  0  0  0  0  0  0  0
    7.0644   -6.4612   15.7375 N   0  0  0  0  0  0  0  0  0  0  0  0
    5.3549   -9.6322   18.3190 C   0  0  0  0  0  0  0  0  0  0  0  0
   10.3704   -4.9638   18.6510 C   0  0  0  0  0  0  0  0  0  0  0  0
    5.5935   -8.6419   17.4234 C   0  0  0  0  0  0  0  0  0  0  0  0
   13.0726   -4.6648   23.3394 O   0  0  0  0  0  0  0  0  0  0  0  0
    8.5955   -6.0705   17.3996 C   0  0  0  0  0  0  0  0  0  0  0  0
    4.6223   -8.3832   16.5030 C   0  0  0  0  0  0  0  0  0  0  0  0
   12.4690   -5.2624   19.9024 C   0  0  0  0  0  0  0  0  0  0  0  0
    3.2548   -9.9919   17.4189 C   0  0  0  0  0  0  0  0  0  0  0  0
   12.4767   -4.7393   22.1790 C   0  0  0  0  0  0  0  0  0  0  0  0
    7.8593   -5.3772   15.3569 N   0  0  0  0  0  0  0  0  0  0  0  0
    7.4412   -6.9038   16.9283 C   0  0  0  0  0  0  0  0  0  0  0  0
  1 21  4  0
  1 23  4  0
  2  5  1  0
  2 13  4  0
  2 16  4  0
  3  6  4  0
  3  7  4  0
  4 13  4  0
  4 19  4  0
  4 24  4  0
  6 23  4  0
  7 16  1  0
  7 21  4  0
  8 18  1  0
  9 20  4  0
  9 22  4  0
 10 17  1  0
 10 25  1  0
 11 16  4  0
 11 19  4  0
 12 15  4  0
 12 22  4  0
 14 24  4  0
 14 25  4  0
 15 17  4  0
 17 20  4  0
 18 23  1  0
 19 25  4  0
M  END
$$$$

 Created by Python create_sdf_string function

 25 28  0  0  0  0  0  0  0  0999 V2000
   13.1533   -5.2399   21.0682 C   0  0  0  0  0  0  0  0  0  0  0  0
   10.4729   -4.0295   17.6135 C   0  0  0  0  0  0  0  0  0  0  0  0
   10.4789   -4.3641   20.9564 C   0  0  0  0  0  0  0  0  0  0  0  0
    8.7421   -5.1412   16.3650 C   0  0  0  0  0  0  0  0  0  0  0  0
   11.4353   -2.9204   17.8044 C   0  0  0  0  0  0  0  0  0  0  0  0
   11.1529   -4.3028   22.1277 C   0  0  0  0  0  0  0  0  0  0  0  0
   11.1290   -4.8502   19.8052 C   0  0  0  0  0  0  0  0  0  0  0  0
   12.4329   -4.2159   24.4224 C   0  0  0  0  0  0  0  0  0  0  0  0
    3.4740   -9.0387   16.5022 C   0  0  0  0  0  0  0  0  0  0  0  0
    6.8384   -7.9290   17.5282 N   0  0  0  0  0  0  0  0  0  0  0  0
    9.4126   -5.9853   18.4899 C   0  0  0  0  0  0  0  0  0  0  0  0
    4.2064  -10.3242   18.3302 C   0  0  0  0  0  0  0  0  0  0  0  0
    9.6599   -4.1551   16.4796 N   0  0  0  0  0  0  0  0  0  0  0  0
    7.0644   -6.4612   15.7375 N   0  0  0  0  0  0  0  0  0  0  0  0
    5.3549   -9.6322   18.3190 C   0  0  0  0  0  0  0  0  0  0  0  0
   10.3704   -4.9638   18.6510 C   0  0  0  0  0  0  0  0  0  0  0  0
    5.5935   -8.6419   17.4234 C   0  0  0  0  0  0  0  0  0  0  0  0
   13.0726   -4.6648   23.3394 O   0  0  0  0  0  0  0  0  0  0  0  0
    8.5955   -6.0705   17.3996 C   0  0  0  0  0  0  0  0  0  0  0  0
    4.6223   -8.3832   16.5030 C   0  0  0  0  0  0  0  0  0  0  0  0
   12.4690   -5.2624   19.9024 C   0  0  0  0  0  0  0  0  0  0  0  0
    3.2548   -9.9919   17.4189 C   0  0  0  0  0  0  0  0  0  0  0  0
   12.4767   -4.7393   22.1790 C   0  0  0  0  0  0  0  0  0  0  0  0
    7.8593   -5.3772   15.3569 N   0  0  0  0  0  0  0  0  0  0  0  0
    7.4412   -6.9038   16.9283 C   0  0  0  0  0  0  0  0  0  0  0  0
  1 21  4  0
  1 23  4  0
  2  5  1  0
  2 13  4  0
  2 16  4  0
  3  6  4  0
  3  7  4  0
  4 13  4  0
  4 19  4  0
  4 24  4  0
  6 23  4  0
  7 16  1  0
  7 21  4  0
  8 18  1  0
  9 20  4  0
  9 22  4  0
 10 17  1  0
 10 25  1  0
 11 16  4  0
 11 19  4  0
 12 15  4  0
 12 22  4  0
 14 24  4  0
 14 25  4  0
 15 17  4  0
 17 20  4  0
 18 23  1  0
 19 25  4  0
M  END
$$$$

 Created by Python create_sdf_string function

 25 28  0  0  0  0  0  0  0  0999 V2000
   13.1533   -5.2399   21.0682 C   0  0  0  0  0  0  0  0  0  0  0  0
   10.4729   -4.0295   17.6135 C   0  0  0  0  0  0  0  0  0  0  0  0
   10.4789   -4.3641   20.9564 C   0  0  0  0  0  0  0  0  0  0  0  0
    8.7421   -5.1412   16.3650 C   0  0  0  0  0  0  0  0  0  0  0  0
   11.4353   -2.9204   17.8044 C   0  0  0  0  0  0  0  0  0  0  0  0
   11.1529   -4.3028   22.1277 C   0  0  0  0  0  0  0  0  0  0  0  0
   11.1290   -4.8502   19.8052 C   0  0  0  0  0  0  0  0  0  0  0  0
   12.4329   -4.2159   24.4224 C   0  0  0  0  0  0  0  0  0  0  0  0
    3.4740   -9.0387   16.5022 C   0  0  0  0  0  0  0  0  0  0  0  0
    6.8384   -7.9290   17.5282 N   0  0  0  0  0  0  0  0  0  0  0  0
    9.4126   -5.9853   18.4899 C   0  0  0  0  0  0  0  0  0  0  0  0
    4.2064  -10.3242   18.3302 C   0  0  0  0  0  0  0  0  0  0  0  0
    9.6599   -4.1551   16.4796 N   0  0  0  0  0  0  0  0  0  0  0  0
    7.0644   -6.4612   15.7375 N   0  0  0  0  0  0  0  0  0  0  0  0
    5.3549   -9.6322   18.3190 C   0  0  0  0  0  0  0  0  0  0  0  0
   10.3704   -4.9638   18.6510 C   0  0  0  0  0  0  0  0  0  0  0  0
    5.5935   -8.6419   17.4234 C   0  0  0  0  0  0  0  0  0  0  0  0
   13.0726   -4.6648   23.3394 O   0  0  0  0  0  0  0  0  0  0  0  0
    8.5955   -6.0705   17.3996 C   0  0  0  0  0  0  0  0  0  0  0  0
    4.6223   -8.3832   16.5030 C   0  0  0  0  0  0  0  0  0  0  0  0
   12.4690   -5.2624   19.9024 C   0  0  0  0  0  0  0  0  0  0  0  0
    3.2548   -9.9919   17.4189 C   0  0  0  0  0  0  0  0  0  0  0  0
   12.4767   -4.7393   22.1790 C   0  0  0  0  0  0  0  0  0  0  0  0
    7.8593   -5.3772   15.3569 N   0  0  0  0  0  0  0  0  0  0  0  0
    7.4412   -6.9038   16.9283 C   0  0  0  0  0  0  0  0  0  0  0  0
  1 21  4  0
  1 23  4  0
  2  5  1  0
  2 13  4  0
  2 16  4  0
  3  6  4  0
  3  7  4  0
  4 13  4  0
  4 19  4  0
  4 24  4  0
  6 23  4  0
  7 16  1  0
  7 21  4  0
  8 18  1  0
  9 20  4  0
  9 22  4  0
 10 17  1  0
 10 25  1  0
 11 16  4  0
 11 19  4  0
 12 15  4  0
 12 22  4  0
 14 24  4  0
 14 25  4  0
 15 17  4  0
 17 20  4  0
 18 23  1  0
 19 25  4  0
M  END
$$$$

 Created by Python create_sdf_string function

 25 28  0  0  0  0  0  0  0  0999 V2000
   13.1533   -5.2399   21.0682 C   0  0  0  0  0  0  0  0  0  0  0  0
   10.4729   -4.0295   17.6135 C   0  0  0  0  0  0  0  0  0  0  0  0
   10.4789   -4.3641   20.9564 C   0  0  0  0  0  0  0  0  0  0  0  0
    8.7421   -5.1412   16.3650 C   0  0  0  0  0  0  0  0  0  0  0  0
   11.4353   -2.9204   17.8044 C   0  0  0  0  0  0  0  0  0  0  0  0
   11.1529   -4.3028   22.1277 C   0  0  0  0  0  0  0  0  0  0  0  0
   11.1290   -4.8502   19.8052 C   0  0  0  0  0  0  0  0  0  0  0  0
   12.4329   -4.2159   24.4224 C   0  0  0  0  0  0  0  0  0  0  0  0
    3.4740   -9.0387   16.5022 C   0  0  0  0  0  0  0  0  0  0  0  0
    6.8384   -7.9290   17.5282 N   0  0  0  0  0  0  0  0  0  0  0  0
    9.4126   -5.9853   18.4899 C   0  0  0  0  0  0  0  0  0  0  0  0
    4.2064  -10.3242   18.3302 C   0  0  0  0  0  0  0  0  0  0  0  0
    9.6599   -4.1551   16.4796 N   0  0  0  0  0  0  0  0  0  0  0  0
    7.0644   -6.4612   15.7375 N   0  0  0  0  0  0  0  0  0  0  0  0
    5.3549   -9.6322   18.3190 C   0  0  0  0  0  0  0  0  0  0  0  0
   10.3704   -4.9638   18.6510 C   0  0  0  0  0  0  0  0  0  0  0  0
    5.5935   -8.6419   17.4234 C   0  0  0  0  0  0  0  0  0  0  0  0
   13.0726   -4.6648   23.3394 O   0  0  0  0  0  0  0  0  0  0  0  0
    8.5955   -6.0705   17.3996 C   0  0  0  0  0  0  0  0  0  0  0  0
    4.6223   -8.3832   16.5030 C   0  0  0  0  0  0  0  0  0  0  0  0
   12.4690   -5.2624   19.9024 C   0  0  0  0  0  0  0  0  0  0  0  0
    3.2548   -9.9919   17.4189 C   0  0  0  0  0  0  0  0  0  0  0  0
   12.4767   -4.7393   22.1790 C   0  0  0  0  0  0  0  0  0  0  0  0
    7.8593   -5.3772   15.3569 N   0  0  0  0  0  0  0  0  0  0  0  0
    7.4412   -6.9038   16.9283 C   0  0  0  0  0  0  0  0  0  0  0  0
  1 21  4  0
  1 23  4  0
  2  5  1  0
  2 13  4  0
  2 16  4  0
  3  6  4  0
  3  7  4  0
  4 13  4  0
  4 19  4  0
  4 24  4  0
  6 23  4  0
  7 16  1  0
  7 21  4  0
  8 18  1  0
  9 20  4  0
  9 22  4  0
 10 17  1  0
 10 25  1  0
 11 16  4  0
 11 19  4  0
 12 15  4  0
 12 22  4  0
 14 24  4  0
 14 25  4  0
 15 17  4  0
 17 20  4  0
 18 23  1  0
 19 25  4  0
M  END
$$$$

 Created by Python create_sdf_string function

 25 28  0  0  0  0  0  0  0  0999 V2000
   13.1533   -5.2399   21.0682 C   0  0  0  0  0  0  0  0  0  0  0  0
   10.4729   -4.0295   17.6135 C   0  0  0  0  0  0  0  0  0  0  0  0
   10.4789   -4.3641   20.9564 C   0  0  0  0  0  0  0  0  0  0  0  0
    8.7421   -5.1412   16.3650 C   0  0  0  0  0  0  0  0  0  0  0  0
   11.4353   -2.9204   17.8044 C   0  0  0  0  0  0  0  0  0  0  0  0
   11.1529   -4.3028   22.1277 C   0  0  0  0  0  0  0  0  0  0  0  0
   11.1290   -4.8502   19.8052 C   0  0  0  0  0  0  0  0  0  0  0  0
   12.4329   -4.2159   24.4224 C   0  0  0  0  0  0  0  0  0  0  0  0
    3.4740   -9.0387   16.5022 C   0  0  0  0  0  0  0  0  0  0  0  0
    6.8384   -7.9290   17.5282 N   0  0  0  0  0  0  0  0  0  0  0  0
    9.4126   -5.9853   18.4899 C   0  0  0  0  0  0  0  0  0  0  0  0
    4.2064  -10.3242   18.3302 C   0  0  0  0  0  0  0  0  0  0  0  0
    9.6599   -4.1551   16.4796 N   0  0  0  0  0  0  0  0  0  0  0  0
    7.0644   -6.4612   15.7375 N   0  0  0  0  0  0  0  0  0  0  0  0
    5.3549   -9.6322   18.3190 C   0  0  0  0  0  0  0  0  0  0  0  0
   10.3704   -4.9638   18.6510 C   0  0  0  0  0  0  0  0  0  0  0  0
    5.5935   -8.6419   17.4234 C   0  0  0  0  0  0  0  0  0  0  0  0
   13.0726   -4.6648   23.3394 O   0  0  0  0  0  0  0  0  0  0  0  0
    8.5955   -6.0705   17.3996 C   0  0  0  0  0  0  0  0  0  0  0  0
    4.6223   -8.3832   16.5030 C   0  0  0  0  0  0  0  0  0  0  0  0
   12.4690   -5.2624   19.9024 C   0  0  0  0  0  0  0  0  0  0  0  0
    3.2548   -9.9919   17.4189 C   0  0  0  0  0  0  0  0  0  0  0  0
   12.4767   -4.7393   22.1790 C   0  0  0  0  0  0  0  0  0  0  0  0
    7.8593   -5.3772   15.3569 N   0  0  0  0  0  0  0  0  0  0  0  0
    7.4412   -6.9038   16.9283 C   0  0  0  0  0  0  0  0  0  0  0  0
  1 21  4  0
  1 23  4  0
  2  5  1  0
  2 13  4  0
  2 16  4  0
  3  6  4  0
  3  7  4  0
  4 13  4  0
  4 19  4  0
  4 24  4  0
  6 23  4  0
  7 16  1  0
  7 21  4  0
  8 18  1  0
  9 20  4  0
  9 22  4  0
 10 17  1  0
 10 25  1  0
 11 16  4  0
 11 19  4  0
 12 15  4  0
 12 22  4  0
 14 24  4  0
 14 25  4  0
 15 17  4  0
 17 20  4  0
 18 23  1  0
 19 25  4  0
M  END
$$$$

 Created by Python create_sdf_string function

 25 28  0  0  0  0  0  0  0  0999 V2000
   13.1533   -5.2399   21.0682 C   0  0  0  0  0  0  0  0  0  0  0  0
   10.4729   -4.0295   17.6135 C   0  0  0  0  0  0  0  0  0  0  0  0
   10.4789   -4.3641   20.9564 C   0  0  0  0  0  0  0  0  0  0  0  0
    8.7421   -5.1412   16.3650 C   0  0  0  0  0  0  0  0  0  0  0  0
   11.4353   -2.9204   17.8044 C   0  0  0  0  0  0  0  0  0  0  0  0
   11.1529   -4.3028   22.1277 C   0  0  0  0  0  0  0  0  0  0  0  0
   11.1290   -4.8502   19.8052 C   0  0  0  0  0  0  0  0  0  0  0  0
   12.4329   -4.2159   24.4224 C   0  0  0  0  0  0  0  0  0  0  0  0
    3.4740   -9.0387   16.5022 C   0  0  0  0  0  0  0  0  0  0  0  0
    6.8384   -7.9290   17.5282 N   0  0  0  0  0  0  0  0  0  0  0  0
    9.4126   -5.9853   18.4899 C   0  0  0  0  0  0  0  0  0  0  0  0
    4.2064  -10.3242   18.3302 C   0  0  0  0  0  0  0  0  0  0  0  0
    9.6599   -4.1551   16.4796 N   0  0  0  0  0  0  0  0  0  0  0  0
    7.0644   -6.4612   15.7375 N   0  0  0  0  0  0  0  0  0  0  0  0
    5.3549   -9.6322   18.3190 C   0  0  0  0  0  0  0  0  0  0  0  0
   10.3704   -4.9638   18.6510 C   0  0  0  0  0  0  0  0  0  0  0  0
    5.5935   -8.6419   17.4234 C   0  0  0  0  0  0  0  0  0  0  0  0
   13.0726   -4.6648   23.3394 O   0  0  0  0  0  0  0  0  0  0  0  0
    8.5955   -6.0705   17.3996 C   0  0  0  0  0  0  0  0  0  0  0  0
    4.6223   -8.3832   16.5030 C   0  0  0  0  0  0  0  0  0  0  0  0
   12.4690   -5.2624   19.9024 C   0  0  0  0  0  0  0  0  0  0  0  0
    3.2548   -9.9919   17.4189 C   0  0  0  0  0  0  0  0  0  0  0  0
   12.4767   -4.7393   22.1790 C   0  0  0  0  0  0  0  0  0  0  0  0
    7.8593   -5.3772   15.3569 N   0  0  0  0  0  0  0  0  0  0  0  0
    7.4412   -6.9038   16.9283 C   0  0  0  0  0  0  0  0  0  0  0  0
  1 21  4  0
  1 23  4  0
  2  5  1  0
  2 13  4  0
  2 16  4  0
  3  6  4  0
  3  7  4  0
  4 13  4  0
  4 19  4  0
  4 24  4  0
  6 23  4  0
  7 16  1  0
  7 21  4  0
  8 18  1  0
  9 20  4  0
  9 22  4  0
 10 17  1  0
 10 25  1  0
 11 16  4  0
 11 19  4  0
 12 15  4  0
 12 22  4  0
 14 24  4  0
 14 25  4  0
 15 17  4  0
 17 20  4  0
 18 23  1  0
 19 25  4  0
M  END
$$$$

 Created by Python create_sdf_string function

 25 28  0  0  0  0  0  0  0  0999 V2000
   13.1533   -5.2399   21.0682 C   0  0  0  0  0  0  0  0  0  0  0  0
   10.4729   -4.0295   17.6135 C   0  0  0  0  0  0  0  0  0  0  0  0
   10.4789   -4.3641   20.9564 C   0  0  0  0  0  0  0  0  0  0  0  0
    8.7421   -5.1412   16.3650 C   0  0  0  0  0  0  0  0  0  0  0  0
   11.4353   -2.9204   17.8044 C   0  0  0  0  0  0  0  0  0  0  0  0
   11.1529   -4.3028   22.1277 C   0  0  0  0  0  0  0  0  0  0  0  0
   11.1290   -4.8502   19.8052 C   0  0  0  0  0  0  0  0  0  0  0  0
   12.4329   -4.2159   24.4224 C   0  0  0  0  0  0  0  0  0  0  0  0
    3.4740   -9.0387   16.5022 C   0  0  0  0  0  0  0  0  0  0  0  0
    6.8384   -7.9290   17.5282 N   0  0  0  0  0  0  0  0  0  0  0  0
    9.4126   -5.9853   18.4899 C   0  0  0  0  0  0  0  0  0  0  0  0
    4.2064  -10.3242   18.3302 C   0  0  0  0  0  0  0  0  0  0  0  0
    9.6599   -4.1551   16.4796 N   0  0  0  0  0  0  0  0  0  0  0  0
    7.0644   -6.4612   15.7375 N   0  0  0  0  0  0  0  0  0  0  0  0
    5.3549   -9.6322   18.3190 C   0  0  0  0  0  0  0  0  0  0  0  0
   10.3704   -4.9638   18.6510 C   0  0  0  0  0  0  0  0  0  0  0  0
    5.5935   -8.6419   17.4234 C   0  0  0  0  0  0  0  0  0  0  0  0
   13.0726   -4.6648   23.3394 O   0  0  0  0  0  0  0  0  0  0  0  0
    8.5955   -6.0705   17.3996 C   0  0  0  0  0  0  0  0  0  0  0  0
    4.6223   -8.3832   16.5030 C   0  0  0  0  0  0  0  0  0  0  0  0
   12.4690   -5.2624   19.9024 C   0  0  0  0  0  0  0  0  0  0  0  0
    3.2548   -9.9919   17.4189 C   0  0  0  0  0  0  0  0  0  0  0  0
   12.4767   -4.7393   22.1790 C   0  0  0  0  0  0  0  0  0  0  0  0
    7.8593   -5.3772   15.3569 N   0  0  0  0  0  0  0  0  0  0  0  0
    7.4412   -6.9038   16.9283 C   0  0  0  0  0  0  0  0  0  0  0  0
  1 21  4  0
  1 23  4  0
  2  5  1  0
  2 13  4  0
  2 16  4  0
  3  6  4  0
  3  7  4  0
  4 13  4  0
  4 19  4  0
  4 24  4  0
  6 23  4  0
  7 16  1  0
  7 21  4  0
  8 18  1  0
  9 20  4  0
  9 22  4  0
 10 17  1  0
 10 25  1  0
 11 16  4  0
 11 19  4  0
 12 15  4  0
 12 22  4  0
 14 24  4  0
 14 25  4  0
 15 17  4  0
 17 20  4  0
 18 23  1  0
 19 25  4  0
M  END
$$$$

 Created by Python create_sdf_string function

 25 28  0  0  0  0  0  0  0  0999 V2000
   13.1533   -5.2399   21.0682 C   0  0  0  0  0  0  0  0  0  0  0  0
   10.4729   -4.0295   17.6135 C   0  0  0  0  0  0  0  0  0  0  0  0
   10.4789   -4.3641   20.9564 C   0  0  0  0  0  0  0  0  0  0  0  0
    8.7421   -5.1412   16.3650 C   0  0  0  0  0  0  0  0  0  0  0  0
   11.4353   -2.9204   17.8044 C   0  0  0  0  0  0  0  0  0  0  0  0
   11.1529   -4.3028   22.1277 C   0  0  0  0  0  0  0  0  0  0  0  0
   11.1290   -4.8502   19.8052 C   0  0  0  0  0  0  0  0  0  0  0  0
   12.4329   -4.2159   24.4224 C   0  0  0  0  0  0  0  0  0  0  0  0
    3.4740   -9.0387   16.5022 C   0  0  0  0  0  0  0  0  0  0  0  0
    6.8384   -7.9290   17.5282 N   0  0  0  0  0  0  0  0  0  0  0  0
    9.4126   -5.9853   18.4899 C   0  0  0  0  0  0  0  0  0  0  0  0
    4.2064  -10.3242   18.3302 C   0  0  0  0  0  0  0  0  0  0  0  0
    9.6599   -4.1551   16.4796 N   0  0  0  0  0  0  0  0  0  0  0  0
    7.0644   -6.4612   15.7375 N   0  0  0  0  0  0  0  0  0  0  0  0
    5.3549   -9.6322   18.3190 C   0  0  0  0  0  0  0  0  0  0  0  0
   10.3704   -4.9638   18.6510 C   0  0  0  0  0  0  0  0  0  0  0  0
    5.5935   -8.6419   17.4234 C   0  0  0  0  0  0  0  0  0  0  0  0
   13.0726   -4.6648   23.3394 O   0  0  0  0  0  0  0  0  0  0  0  0
    8.5955   -6.0705   17.3996 C   0  0  0  0  0  0  0  0  0  0  0  0
    4.6223   -8.3832   16.5030 C   0  0  0  0  0  0  0  0  0  0  0  0
   12.4690   -5.2624   19.9024 C   0  0  0  0  0  0  0  0  0  0  0  0
    3.2548   -9.9919   17.4189 C   0  0  0  0  0  0  0  0  0  0  0  0
   12.4767   -4.7393   22.1790 C   0  0  0  0  0  0  0  0  0  0  0  0
    7.8593   -5.3772   15.3569 N   0  0  0  0  0  0  0  0  0  0  0  0
    7.4412   -6.9038   16.9283 C   0  0  0  0  0  0  0  0  0  0  0  0
  1 21  4  0
  1 23  4  0
  2  5  1  0
  2 13  4  0
  2 16  4  0
  3  6  4  0
  3  7  4  0
  4 13  4  0
  4 19  4  0
  4 24  4  0
  6 23  4  0
  7 16  1  0
  7 21  4  0
  8 18  1  0
  9 20  4  0
  9 22  4  0
 10 17  1  0
 10 25  1  0
 11 16  4  0
 11 19  4  0
 12 15  4  0
 12 22  4  0
 14 24  4  0
 14 25  4  0
 15 17  4  0
 17 20  4  0
 18 23  1  0
 19 25  4  0
M  END
$$$$

 Created by Python create_sdf_string function

 25 28  0  0  0  0  0  0  0  0999 V2000
   13.1533   -5.2399   21.0682 C   0  0  0  0  0  0  0  0  0  0  0  0
   10.4729   -4.0295   17.6135 C   0  0  0  0  0  0  0  0  0  0  0  0
   10.4789   -4.3641   20.9564 C   0  0  0  0  0  0  0  0  0  0  0  0
    8.7421   -5.1412   16.3650 C   0  0  0  0  0  0  0  0  0  0  0  0
   11.4353   -2.9204   17.8044 C   0  0  0  0  0  0  0  0  0  0  0  0
   11.1529   -4.3028   22.1277 C   0  0  0  0  0  0  0  0  0  0  0  0
   11.1290   -4.8502   19.8052 C   0  0  0  0  0  0  0  0  0  0  0  0
   12.4329   -4.2159   24.4224 C   0  0  0  0  0  0  0  0  0  0  0  0
    3.4740   -9.0387   16.5022 C   0  0  0  0  0  0  0  0  0  0  0  0
    6.8384   -7.9290   17.5282 N   0  0  0  0  0  0  0  0  0  0  0  0
    9.4126   -5.9853   18.4899 C   0  0  0  0  0  0  0  0  0  0  0  0
    4.2064  -10.3242   18.3302 C   0  0  0  0  0  0  0  0  0  0  0  0
    9.6599   -4.1551   16.4796 N   0  0  0  0  0  0  0  0  0  0  0  0
    7.0644   -6.4612   15.7375 N   0  0  0  0  0  0  0  0  0  0  0  0
    5.3549   -9.6322   18.3190 C   0  0  0  0  0  0  0  0  0  0  0  0
   10.3704   -4.9638   18.6510 C   0  0  0  0  0  0  0  0  0  0  0  0
    5.5935   -8.6419   17.4234 C   0  0  0  0  0  0  0  0  0  0  0  0
   13.0726   -4.6648   23.3394 O   0  0  0  0  0  0  0  0  0  0  0  0
    8.5955   -6.0705   17.3996 C   0  0  0  0  0  0  0  0  0  0  0  0
    4.6223   -8.3832   16.5030 C   0  0  0  0  0  0  0  0  0  0  0  0
   12.4690   -5.2624   19.9024 C   0  0  0  0  0  0  0  0  0  0  0  0
    3.2548   -9.9919   17.4189 C   0  0  0  0  0  0  0  0  0  0  0  0
   12.4767   -4.7393   22.1790 C   0  0  0  0  0  0  0  0  0  0  0  0
    7.8593   -5.3772   15.3569 N   0  0  0  0  0  0  0  0  0  0  0  0
    7.4412   -6.9038   16.9283 C   0  0  0  0  0  0  0  0  0  0  0  0
  1 21  4  0
  1 23  4  0
  2  5  1  0
  2 13  4  0
  2 16  4  0
  3  6  4  0
  3  7  4  0
  4 13  4  0
  4 19  4  0
  4 24  4  0
  6 23  4  0
  7 16  1  0
  7 21  4  0
  8 18  1  0
  9 20  4  0
  9 22  4  0
 10 17  1  0
 10 25  1  0
 11 16  4  0
 11 19  4  0
 12 15  4  0
 12 22  4  0
 14 24  4  0
 14 25  4  0
 15 17  4  0
 17 20  4  0
 18 23  1  0
 19 25  4  0
M  END
$$$$

 Created by Python create_sdf_string function

 25 28  0  0  0  0  0  0  0  0999 V2000
   13.1533   -5.2399   21.0682 C   0  0  0  0  0  0  0  0  0  0  0  0
   10.4729   -4.0295   17.6135 C   0  0  0  0  0  0  0  0  0  0  0  0
   10.4789   -4.3641   20.9564 C   0  0  0  0  0  0  0  0  0  0  0  0
    8.7421   -5.1412   16.3650 C   0  0  0  0  0  0  0  0  0  0  0  0
   11.4353   -2.9204   17.8044 C   0  0  0  0  0  0  0  0  0  0  0  0
   11.1529   -4.3028   22.1277 C   0  0  0  0  0  0  0  0  0  0  0  0
   11.1290   -4.8502   19.8052 C   0  0  0  0  0  0  0  0  0  0  0  0
   12.4329   -4.2159   24.4224 C   0  0  0  0  0  0  0  0  0  0  0  0
    3.4740   -9.0387   16.5022 C   0  0  0  0  0  0  0  0  0  0  0  0
    6.8384   -7.9290   17.5282 N   0  0  0  0  0  0  0  0  0  0  0  0
    9.4126   -5.9853   18.4899 C   0  0  0  0  0  0  0  0  0  0  0  0
    4.2064  -10.3242   18.3302 C   0  0  0  0  0  0  0  0  0  0  0  0
    9.6599   -4.1551   16.4796 N   0  0  0  0  0  0  0  0  0  0  0  0
    7.0644   -6.4612   15.7375 N   0  0  0  0  0  0  0  0  0  0  0  0
    5.3549   -9.6322   18.3190 C   0  0  0  0  0  0  0  0  0  0  0  0
   10.3704   -4.9638   18.6510 C   0  0  0  0  0  0  0  0  0  0  0  0
    5.5935   -8.6419   17.4234 C   0  0  0  0  0  0  0  0  0  0  0  0
   13.0726   -4.6648   23.3394 O   0  0  0  0  0  0  0  0  0  0  0  0
    8.5955   -6.0705   17.3996 C   0  0  0  0  0  0  0  0  0  0  0  0
    4.6223   -8.3832   16.5030 C   0  0  0  0  0  0  0  0  0  0  0  0
   12.4690   -5.2624   19.9024 C   0  0  0  0  0  0  0  0  0  0  0  0
    3.2548   -9.9919   17.4189 C   0  0  0  0  0  0  0  0  0  0  0  0
   12.4767   -4.7393   22.1790 C   0  0  0  0  0  0  0  0  0  0  0  0
    7.8593   -5.3772   15.3569 N   0  0  0  0  0  0  0  0  0  0  0  0
    7.4412   -6.9038   16.9283 C   0  0  0  0  0  0  0  0  0  0  0  0
  1 21  4  0
  1 23  4  0
  2  5  1  0
  2 13  4  0
  2 16  4  0
  3  6  4  0
  3  7  4  0
  4 13  4  0
  4 19  4  0
  4 24  4  0
  6 23  4  0
  7 16  1  0
  7 21  4  0
  8 18  1  0
  9 20  4  0
  9 22  4  0
 10 17  1  0
 10 25  1  0
 11 16  4  0
 11 19  4  0
 12 15  4  0
 12 22  4  0
 14 24  4  0
 14 25  4  0
 15 17  4  0
 17 20  4  0
 18 23  1  0
 19 25  4  0
M  END
$$$$

 Created by Python create_sdf_string function

 25 28  0  0  0  0  0  0  0  0999 V2000
   13.1533   -5.2399   21.0682 C   0  0  0  0  0  0  0  0  0  0  0  0
   10.4729   -4.0295   17.6135 C   0  0  0  0  0  0  0  0  0  0  0  0
   10.4789   -4.3641   20.9564 C   0  0  0  0  0  0  0  0  0  0  0  0
    8.7421   -5.1412   16.3650 C   0  0  0  0  0  0  0  0  0  0  0  0
   11.4353   -2.9204   17.8044 C   0  0  0  0  0  0  0  0  0  0  0  0
   11.1529   -4.3028   22.1277 C   0  0  0  0  0  0  0  0  0  0  0  0
   11.1290   -4.8502   19.8052 C   0  0  0  0  0  0  0  0  0  0  0  0
   12.4329   -4.2159   24.4224 C   0  0  0  0  0  0  0  0  0  0  0  0
    3.4740   -9.0387   16.5022 C   0  0  0  0  0  0  0  0  0  0  0  0
    6.8384   -7.9290   17.5282 N   0  0  0  0  0  0  0  0  0  0  0  0
    9.4126   -5.9853   18.4899 C   0  0  0  0  0  0  0  0  0  0  0  0
    4.2064  -10.3242   18.3302 C   0  0  0  0  0  0  0  0  0  0  0  0
    9.6599   -4.1551   16.4796 N   0  0  0  0  0  0  0  0  0  0  0  0
    7.0644   -6.4612   15.7375 N   0  0  0  0  0  0  0  0  0  0  0  0
    5.3549   -9.6322   18.3190 C   0  0  0  0  0  0  0  0  0  0  0  0
   10.3704   -4.9638   18.6510 C   0  0  0  0  0  0  0  0  0  0  0  0
    5.5935   -8.6419   17.4234 C   0  0  0  0  0  0  0  0  0  0  0  0
   13.0726   -4.6648   23.3394 O   0  0  0  0  0  0  0  0  0  0  0  0
    8.5955   -6.0705   17.3996 C   0  0  0  0  0  0  0  0  0  0  0  0
    4.6223   -8.3832   16.5030 C   0  0  0  0  0  0  0  0  0  0  0  0
   12.4690   -5.2624   19.9024 C   0  0  0  0  0  0  0  0  0  0  0  0
    3.2548   -9.9919   17.4189 C   0  0  0  0  0  0  0  0  0  0  0  0
   12.4767   -4.7393   22.1790 C   0  0  0  0  0  0  0  0  0  0  0  0
    7.8593   -5.3772   15.3569 N   0  0  0  0  0  0  0  0  0  0  0  0
    7.4412   -6.9038   16.9283 C   0  0  0  0  0  0  0  0  0  0  0  0
  1 21  4  0
  1 23  4  0
  2  5  1  0
  2 13  4  0
  2 16  4  0
  3  6  4  0
  3  7  4  0
  4 13  4  0
  4 19  4  0
  4 24  4  0
  6 23  4  0
  7 16  1  0
  7 21  4  0
  8 18  1  0
  9 20  4  0
  9 22  4  0
 10 17  1  0
 10 25  1  0
 11 16  4  0
 11 19  4  0
 12 15  4  0
 12 22  4  0
 14 24  4  0
 14 25  4  0
 15 17  4  0
 17 20  4  0
 18 23  1  0
 19 25  4  0
M  END
$$$$

 Created by Python create_sdf_string function

 25 28  0  0  0  0  0  0  0  0999 V2000
   13.1533   -5.2399   21.0682 C   0  0  0  0  0  0  0  0  0  0  0  0
   10.4729   -4.0295   17.6135 C   0  0  0  0  0  0  0  0  0  0  0  0
   10.4789   -4.3641   20.9564 C   0  0  0  0  0  0  0  0  0  0  0  0
    8.7421   -5.1412   16.3650 C   0  0  0  0  0  0  0  0  0  0  0  0
   11.4353   -2.9204   17.8044 C   0  0  0  0  0  0  0  0  0  0  0  0
   11.1529   -4.3028   22.1277 C   0  0  0  0  0  0  0  0  0  0  0  0
   11.1290   -4.8502   19.8052 C   0  0  0  0  0  0  0  0  0  0  0  0
   12.4329   -4.2159   24.4224 C   0  0  0  0  0  0  0  0  0  0  0  0
    3.4740   -9.0387   16.5022 C   0  0  0  0  0  0  0  0  0  0  0  0
    6.8384   -7.9290   17.5282 N   0  0  0  0  0  0  0  0  0  0  0  0
    9.4126   -5.9853   18.4899 C   0  0  0  0  0  0  0  0  0  0  0  0
    4.2064  -10.3242   18.3302 C   0  0  0  0  0  0  0  0  0  0  0  0
    9.6599   -4.1551   16.4796 N   0  0  0  0  0  0  0  0  0  0  0  0
    7.0644   -6.4612   15.7375 N   0  0  0  0  0  0  0  0  0  0  0  0
    5.3549   -9.6322   18.3190 C   0  0  0  0  0  0  0  0  0  0  0  0
   10.3704   -4.9638   18.6510 C   0  0  0  0  0  0  0  0  0  0  0  0
    5.5935   -8.6419   17.4234 C   0  0  0  0  0  0  0  0  0  0  0  0
   13.0726   -4.6648   23.3394 O   0  0  0  0  0  0  0  0  0  0  0  0
    8.5955   -6.0705   17.3996 C   0  0  0  0  0  0  0  0  0  0  0  0
    4.6223   -8.3832   16.5030 C   0  0  0  0  0  0  0  0  0  0  0  0
   12.4690   -5.2624   19.9024 C   0  0  0  0  0  0  0  0  0  0  0  0
    3.2548   -9.9919   17.4189 C   0  0  0  0  0  0  0  0  0  0  0  0
   12.4767   -4.7393   22.1790 C   0  0  0  0  0  0  0  0  0  0  0  0
    7.8593   -5.3772   15.3569 N   0  0  0  0  0  0  0  0  0  0  0  0
    7.4412   -6.9038   16.9283 C   0  0  0  0  0  0  0  0  0  0  0  0
  1 21  4  0
  1 23  4  0
  2  5  1  0
  2 13  4  0
  2 16  4  0
  3  6  4  0
  3  7  4  0
  4 13  4  0
  4 19  4  0
  4 24  4  0
  6 23  4  0
  7 16  1  0
  7 21  4  0
  8 18  1  0
  9 20  4  0
  9 22  4  0
 10 17  1  0
 10 25  1  0
 11 16  4  0
 11 19  4  0
 12 15  4  0
 12 22  4  0
 14 24  4  0
 14 25  4  0
 15 17  4  0
 17 20  4  0
 18 23  1  0
 19 25  4  0
M  END
$$$$

 Created by Python create_sdf_string function

 25 28  0  0  0  0  0  0  0  0999 V2000
   13.1533   -5.2399   21.0682 C   0  0  0  0  0  0  0  0  0  0  0  0
   10.4729   -4.0295   17.6135 C   0  0  0  0  0  0  0  0  0  0  0  0
   10.4789   -4.3641   20.9564 C   0  0  0  0  0  0  0  0  0  0  0  0
    8.7421   -5.1412   16.3650 C   0  0  0  0  0  0  0  0  0  0  0  0
   11.4353   -2.9204   17.8044 C   0  0  0  0  0  0  0  0  0  0  0  0
   11.1529   -4.3028   22.1277 C   0  0  0  0  0  0  0  0  0  0  0  0
   11.1290   -4.8502   19.8052 C   0  0  0  0  0  0  0  0  0  0  0  0
   12.4329   -4.2159   24.4224 C   0  0  0  0  0  0  0  0  0  0  0  0
    3.4740   -9.0387   16.5022 C   0  0  0  0  0  0  0  0  0  0  0  0
    6.8384   -7.9290   17.5282 N   0  0  0  0  0  0  0  0  0  0  0  0
    9.4126   -5.9853   18.4899 C   0  0  0  0  0  0  0  0  0  0  0  0
    4.2064  -10.3242   18.3302 C   0  0  0  0  0  0  0  0  0  0  0  0
    9.6599   -4.1551   16.4796 N   0  0  0  0  0  0  0  0  0  0  0  0
    7.0644   -6.4612   15.7375 N   0  0  0  0  0  0  0  0  0  0  0  0
    5.3549   -9.6322   18.3190 C   0  0  0  0  0  0  0  0  0  0  0  0
   10.3704   -4.9638   18.6510 C   0  0  0  0  0  0  0  0  0  0  0  0
    5.5935   -8.6419   17.4234 C   0  0  0  0  0  0  0  0  0  0  0  0
   13.0726   -4.6648   23.3394 O   0  0  0  0  0  0  0  0  0  0  0  0
    8.5955   -6.0705   17.3996 C   0  0  0  0  0  0  0  0  0  0  0  0
    4.6223   -8.3832   16.5030 C   0  0  0  0  0  0  0  0  0  0  0  0
   12.4690   -5.2624   19.9024 C   0  0  0  0  0  0  0  0  0  0  0  0
    3.2548   -9.9919   17.4189 C   0  0  0  0  0  0  0  0  0  0  0  0
   12.4767   -4.7393   22.1790 C   0  0  0  0  0  0  0  0  0  0  0  0
    7.8593   -5.3772   15.3569 N   0  0  0  0  0  0  0  0  0  0  0  0
    7.4412   -6.9038   16.9283 C   0  0  0  0  0  0  0  0  0  0  0  0
  1 21  4  0
  1 23  4  0
  2  5  1  0
  2 13  4  0
  2 16  4  0
  3  6  4  0
  3  7  4  0
  4 13  4  0
  4 19  4  0
  4 24  4  0
  6 23  4  0
  7 16  1  0
  7 21  4  0
  8 18  1  0
  9 20  4  0
  9 22  4  0
 10 17  1  0
 10 25  1  0
 11 16  4  0
 11 19  4  0
 12 15  4  0
 12 22  4  0
 14 24  4  0
 14 25  4  0
 15 17  4  0
 17 20  4  0
 18 23  1  0
 19 25  4  0
M  END
$$$$

 Created by Python create_sdf_string function

 25 28  0  0  0  0  0  0  0  0999 V2000
   13.1533   -5.2399   21.0682 C   0  0  0  0  0  0  0  0  0  0  0  0
   10.4729   -4.0295   17.6135 C   0  0  0  0  0  0  0  0  0  0  0  0
   10.4789   -4.3641   20.9564 C   0  0  0  0  0  0  0  0  0  0  0  0
    8.7421   -5.1412   16.3650 C   0  0  0  0  0  0  0  0  0  0  0  0
   11.4353   -2.9204   17.8044 C   0  0  0  0  0  0  0  0  0  0  0  0
   11.1529   -4.3028   22.1277 C   0  0  0  0  0  0  0  0  0  0  0  0
   11.1290   -4.8502   19.8052 C   0  0  0  0  0  0  0  0  0  0  0  0
   12.4329   -4.2159   24.4224 C   0  0  0  0  0  0  0  0  0  0  0  0
    3.4740   -9.0387   16.5022 C   0  0  0  0  0  0  0  0  0  0  0  0
    6.8384   -7.9290   17.5282 N   0  0  0  0  0  0  0  0  0  0  0  0
    9.4126   -5.9853   18.4899 C   0  0  0  0  0  0  0  0  0  0  0  0
    4.2064  -10.3242   18.3302 C   0  0  0  0  0  0  0  0  0  0  0  0
    9.6599   -4.1551   16.4796 N   0  0  0  0  0  0  0  0  0  0  0  0
    7.0644   -6.4612   15.7375 N   0  0  0  0  0  0  0  0  0  0  0  0
    5.3549   -9.6322   18.3190 C   0  0  0  0  0  0  0  0  0  0  0  0
   10.3704   -4.9638   18.6510 C   0  0  0  0  0  0  0  0  0  0  0  0
    5.5935   -8.6419   17.4234 C   0  0  0  0  0  0  0  0  0  0  0  0
   13.0726   -4.6648   23.3394 O   0  0  0  0  0  0  0  0  0  0  0  0
    8.5955   -6.0705   17.3996 C   0  0  0  0  0  0  0  0  0  0  0  0
    4.6223   -8.3832   16.5030 C   0  0  0  0  0  0  0  0  0  0  0  0
   12.4690   -5.2624   19.9024 C   0  0  0  0  0  0  0  0  0  0  0  0
    3.2548   -9.9919   17.4189 C   0  0  0  0  0  0  0  0  0  0  0  0
   12.4767   -4.7393   22.1790 C   0  0  0  0  0  0  0  0  0  0  0  0
    7.8593   -5.3772   15.3569 N   0  0  0  0  0  0  0  0  0  0  0  0
    7.4412   -6.9038   16.9283 C   0  0  0  0  0  0  0  0  0  0  0  0
  1 21  4  0
  1 23  4  0
  2  5  1  0
  2 13  4  0
  2 16  4  0
  3  6  4  0
  3  7  4  0
  4 13  4  0
  4 19  4  0
  4 24  4  0
  6 23  4  0
  7 16  1  0
  7 21  4  0
  8 18  1  0
  9 20  4  0
  9 22  4  0
 10 17  1  0
 10 25  1  0
 11 16  4  0
 11 19  4  0
 12 15  4  0
 12 22  4  0
 14 24  4  0
 14 25  4  0
 15 17  4  0
 17 20  4  0
 18 23  1  0
 19 25  4  0
M  END
$$$$

 Created by Python create_sdf_string function

 25 28  0  0  0  0  0  0  0  0999 V2000
   13.1533   -5.2399   21.0682 C   0  0  0  0  0  0  0  0  0  0  0  0
   10.4729   -4.0295   17.6135 C   0  0  0  0  0  0  0  0  0  0  0  0
   10.4789   -4.3641   20.9564 C   0  0  0  0  0  0  0  0  0  0  0  0
    8.7421   -5.1412   16.3650 C   0  0  0  0  0  0  0  0  0  0  0  0
   11.4353   -2.9204   17.8044 C   0  0  0  0  0  0  0  0  0  0  0  0
   11.1529   -4.3028   22.1277 C   0  0  0  0  0  0  0  0  0  0  0  0
   11.1290   -4.8502   19.8052 C   0  0  0  0  0  0  0  0  0  0  0  0
   12.4329   -4.2159   24.4224 C   0  0  0  0  0  0  0  0  0  0  0  0
    3.4740   -9.0387   16.5022 C   0  0  0  0  0  0  0  0  0  0  0  0
    6.8384   -7.9290   17.5282 N   0  0  0  0  0  0  0  0  0  0  0  0
    9.4126   -5.9853   18.4899 C   0  0  0  0  0  0  0  0  0  0  0  0
    4.2064  -10.3242   18.3302 C   0  0  0  0  0  0  0  0  0  0  0  0
    9.6599   -4.1551   16.4796 N   0  0  0  0  0  0  0  0  0  0  0  0
    7.0644   -6.4612   15.7375 N   0  0  0  0  0  0  0  0  0  0  0  0
    5.3549   -9.6322   18.3190 C   0  0  0  0  0  0  0  0  0  0  0  0
   10.3704   -4.9638   18.6510 C   0  0  0  0  0  0  0  0  0  0  0  0
    5.5935   -8.6419   17.4234 C   0  0  0  0  0  0  0  0  0  0  0  0
   13.0726   -4.6648   23.3394 O   0  0  0  0  0  0  0  0  0  0  0  0
    8.5955   -6.0705   17.3996 C   0  0  0  0  0  0  0  0  0  0  0  0
    4.6223   -8.3832   16.5030 C   0  0  0  0  0  0  0  0  0  0  0  0
   12.4690   -5.2624   19.9024 C   0  0  0  0  0  0  0  0  0  0  0  0
    3.2548   -9.9919   17.4189 C   0  0  0  0  0  0  0  0  0  0  0  0
   12.4767   -4.7393   22.1790 C   0  0  0  0  0  0  0  0  0  0  0  0
    7.8593   -5.3772   15.3569 N   0  0  0  0  0  0  0  0  0  0  0  0
    7.4412   -6.9038   16.9283 C   0  0  0  0  0  0  0  0  0  0  0  0
  1 21  4  0
  1 23  4  0
  2  5  1  0
  2 13  4  0
  2 16  4  0
  3  6  4  0
  3  7  4  0
  4 13  4  0
  4 19  4  0
  4 24  4  0
  6 23  4  0
  7 16  1  0
  7 21  4  0
  8 18  1  0
  9 20  4  0
  9 22  4  0
 10 17  1  0
 10 25  1  0
 11 16  4  0
 11 19  4  0
 12 15  4  0
 12 22  4  0
 14 24  4  0
 14 25  4  0
 15 17  4  0
 17 20  4  0
 18 23  1  0
 19 25  4  0
M  END
$$$$

 Created by Python create_sdf_string function

 25 28  0  0  0  0  0  0  0  0999 V2000
   13.1533   -5.2399   21.0682 C   0  0  0  0  0  0  0  0  0  0  0  0
   10.4729   -4.0295   17.6135 C   0  0  0  0  0  0  0  0  0  0  0  0
   10.4789   -4.3641   20.9564 C   0  0  0  0  0  0  0  0  0  0  0  0
    8.7421   -5.1412   16.3650 C   0  0  0  0  0  0  0  0  0  0  0  0
   11.4353   -2.9204   17.8044 C   0  0  0  0  0  0  0  0  0  0  0  0
   11.1529   -4.3028   22.1277 C   0  0  0  0  0  0  0  0  0  0  0  0
   11.1290   -4.8502   19.8052 C   0  0  0  0  0  0  0  0  0  0  0  0
   12.4329   -4.2159   24.4224 C   0  0  0  0  0  0  0  0  0  0  0  0
    3.4740   -9.0387   16.5022 C   0  0  0  0  0  0  0  0  0  0  0  0
    6.8384   -7.9290   17.5282 N   0  0  0  0  0  0  0  0  0  0  0  0
    9.4126   -5.9853   18.4899 C   0  0  0  0  0  0  0  0  0  0  0  0
    4.2064  -10.3242   18.3302 C   0  0  0  0  0  0  0  0  0  0  0  0
    9.6599   -4.1551   16.4796 N   0  0  0  0  0  0  0  0  0  0  0  0
    7.0644   -6.4612   15.7375 N   0  0  0  0  0  0  0  0  0  0  0  0
    5.3549   -9.6322   18.3190 C   0  0  0  0  0  0  0  0  0  0  0  0
   10.3704   -4.9638   18.6510 C   0  0  0  0  0  0  0  0  0  0  0  0
    5.5935   -8.6419   17.4234 C   0  0  0  0  0  0  0  0  0  0  0  0
   13.0726   -4.6648   23.3394 O   0  0  0  0  0  0  0  0  0  0  0  0
    8.5955   -6.0705   17.3996 C   0  0  0  0  0  0  0  0  0  0  0  0
    4.6223   -8.3832   16.5030 C   0  0  0  0  0  0  0  0  0  0  0  0
   12.4690   -5.2624   19.9024 C   0  0  0  0  0  0  0  0  0  0  0  0
    3.2548   -9.9919   17.4189 C   0  0  0  0  0  0  0  0  0  0  0  0
   12.4767   -4.7393   22.1790 C   0  0  0  0  0  0  0  0  0  0  0  0
    7.8593   -5.3772   15.3569 N   0  0  0  0  0  0  0  0  0  0  0  0
    7.4412   -6.9038   16.9283 C   0  0  0  0  0  0  0  0  0  0  0  0
  1 21  4  0
  1 23  4  0
  2  5  1  0
  2 13  4  0
  2 16  4  0
  3  6  4  0
  3  7  4  0
  4 13  4  0
  4 19  4  0
  4 24  4  0
  6 23  4  0
  7 16  1  0
  7 21  4  0
  8 18  1  0
  9 20  4  0
  9 22  4  0
 10 17  1  0
 10 25  1  0
 11 16  4  0
 11 19  4  0
 12 15  4  0
 12 22  4  0
 14 24  4  0
 14 25  4  0
 15 17  4  0
 17 20  4  0
 18 23  1  0
 19 25  4  0
M  END
$$$$

 Created by Python create_sdf_string function

 25 28  0  0  0  0  0  0  0  0999 V2000
   13.1533   -5.2399   21.0682 C   0  0  0  0  0  0  0  0  0  0  0  0
   10.4729   -4.0295   17.6135 C   0  0  0  0  0  0  0  0  0  0  0  0
   10.4789   -4.3641   20.9564 C   0  0  0  0  0  0  0  0  0  0  0  0
    8.7421   -5.1412   16.3650 C   0  0  0  0  0  0  0  0  0  0  0  0
   11.4353   -2.9204   17.8044 C   0  0  0  0  0  0  0  0  0  0  0  0
   11.1529   -4.3028   22.1277 C   0  0  0  0  0  0  0  0  0  0  0  0
   11.1290   -4.8502   19.8052 C   0  0  0  0  0  0  0  0  0  0  0  0
   12.4329   -4.2159   24.4224 C   0  0  0  0  0  0  0  0  0  0  0  0
    3.4740   -9.0387   16.5022 C   0  0  0  0  0  0  0  0  0  0  0  0
    6.8384   -7.9290   17.5282 N   0  0  0  0  0  0  0  0  0  0  0  0
    9.4126   -5.9853   18.4899 C   0  0  0  0  0  0  0  0  0  0  0  0
    4.2064  -10.3242   18.3302 C   0  0  0  0  0  0  0  0  0  0  0  0
    9.6599   -4.1551   16.4796 N   0  0  0  0  0  0  0  0  0  0  0  0
    7.0644   -6.4612   15.7375 N   0  0  0  0  0  0  0  0  0  0  0  0
    5.3549   -9.6322   18.3190 C   0  0  0  0  0  0  0  0  0  0  0  0
   10.3704   -4.9638   18.6510 C   0  0  0  0  0  0  0  0  0  0  0  0
    5.5935   -8.6419   17.4234 C   0  0  0  0  0  0  0  0  0  0  0  0
   13.0726   -4.6648   23.3394 O   0  0  0  0  0  0  0  0  0  0  0  0
    8.5955   -6.0705   17.3996 C   0  0  0  0  0  0  0  0  0  0  0  0
    4.6223   -8.3832   16.5030 C   0  0  0  0  0  0  0  0  0  0  0  0
   12.4690   -5.2624   19.9024 C   0  0  0  0  0  0  0  0  0  0  0  0
    3.2548   -9.9919   17.4189 C   0  0  0  0  0  0  0  0  0  0  0  0
   12.4767   -4.7393   22.1790 C   0  0  0  0  0  0  0  0  0  0  0  0
    7.8593   -5.3772   15.3569 N   0  0  0  0  0  0  0  0  0  0  0  0
    7.4412   -6.9038   16.9283 C   0  0  0  0  0  0  0  0  0  0  0  0
  1 21  4  0
  1 23  4  0
  2  5  1  0
  2 13  4  0
  2 16  4  0
  3  6  4  0
  3  7  4  0
  4 13  4  0
  4 19  4  0
  4 24  4  0
  6 23  4  0
  7 16  1  0
  7 21  4  0
  8 18  1  0
  9 20  4  0
  9 22  4  0
 10 17  1  0
 10 25  1  0
 11 16  4  0
 11 19  4  0
 12 15  4  0
 12 22  4  0
 14 24  4  0
 14 25  4  0
 15 17  4  0
 17 20  4  0
 18 23  1  0
 19 25  4  0
M  END
$$$$

 Created by Python create_sdf_string function

 25 28  0  0  0  0  0  0  0  0999 V2000
   13.1533   -5.2399   21.0682 C   0  0  0  0  0  0  0  0  0  0  0  0
   10.4729   -4.0295   17.6135 C   0  0  0  0  0  0  0  0  0  0  0  0
   10.4789   -4.3641   20.9564 C   0  0  0  0  0  0  0  0  0  0  0  0
    8.7421   -5.1412   16.3650 C   0  0  0  0  0  0  0  0  0  0  0  0
   11.4353   -2.9204   17.8044 C   0  0  0  0  0  0  0  0  0  0  0  0
   11.1529   -4.3028   22.1277 C   0  0  0  0  0  0  0  0  0  0  0  0
   11.1290   -4.8502   19.8052 C   0  0  0  0  0  0  0  0  0  0  0  0
   12.4329   -4.2159   24.4224 C   0  0  0  0  0  0  0  0  0  0  0  0
    3.4740   -9.0387   16.5022 C   0  0  0  0  0  0  0  0  0  0  0  0
    6.8384   -7.9290   17.5282 N   0  0  0  0  0  0  0  0  0  0  0  0
    9.4126   -5.9853   18.4899 C   0  0  0  0  0  0  0  0  0  0  0  0
    4.2064  -10.3242   18.3302 C   0  0  0  0  0  0  0  0  0  0  0  0
    9.6599   -4.1551   16.4796 N   0  0  0  0  0  0  0  0  0  0  0  0
    7.0644   -6.4612   15.7375 N   0  0  0  0  0  0  0  0  0  0  0  0
    5.3549   -9.6322   18.3190 C   0  0  0  0  0  0  0  0  0  0  0  0
   10.3704   -4.9638   18.6510 C   0  0  0  0  0  0  0  0  0  0  0  0
    5.5935   -8.6419   17.4234 C   0  0  0  0  0  0  0  0  0  0  0  0
   13.0726   -4.6648   23.3394 O   0  0  0  0  0  0  0  0  0  0  0  0
    8.5955   -6.0705   17.3996 C   0  0  0  0  0  0  0  0  0  0  0  0
    4.6223   -8.3832   16.5030 C   0  0  0  0  0  0  0  0  0  0  0  0
   12.4690   -5.2624   19.9024 C   0  0  0  0  0  0  0  0  0  0  0  0
    3.2548   -9.9919   17.4189 C   0  0  0  0  0  0  0  0  0  0  0  0
   12.4767   -4.7393   22.1790 C   0  0  0  0  0  0  0  0  0  0  0  0
    7.8593   -5.3772   15.3569 N   0  0  0  0  0  0  0  0  0  0  0  0
    7.4412   -6.9038   16.9283 C   0  0  0  0  0  0  0  0  0  0  0  0
  1 21  4  0
  1 23  4  0
  2  5  1  0
  2 13  4  0
  2 16  4  0
  3  6  4  0
  3  7  4  0
  4 13  4  0
  4 19  4  0
  4 24  4  0
  6 23  4  0
  7 16  1  0
  7 21  4  0
  8 18  1  0
  9 20  4  0
  9 22  4  0
 10 17  1  0
 10 25  1  0
 11 16  4  0
 11 19  4  0
 12 15  4  0
 12 22  4  0
 14 24  4  0
 14 25  4  0
 15 17  4  0
 17 20  4  0
 18 23  1  0
 19 25  4  0
M  END
$$$$

 Created by Python create_sdf_string function

 25 28  0  0  0  0  0  0  0  0999 V2000
   13.1533   -5.2399   21.0682 C   0  0  0  0  0  0  0  0  0  0  0  0
   10.4729   -4.0295   17.6135 C   0  0  0  0  0  0  0  0  0  0  0  0
   10.4789   -4.3641   20.9564 C   0  0  0  0  0  0  0  0  0  0  0  0
    8.7421   -5.1412   16.3650 C   0  0  0  0  0  0  0  0  0  0  0  0
   11.4353   -2.9204   17.8044 C   0  0  0  0  0  0  0  0  0  0  0  0
   11.1529   -4.3028   22.1277 C   0  0  0  0  0  0  0  0  0  0  0  0
   11.1290   -4.8502   19.8052 C   0  0  0  0  0  0  0  0  0  0  0  0
   12.4329   -4.2159   24.4224 C   0  0  0  0  0  0  0  0  0  0  0  0
    3.4740   -9.0387   16.5022 C   0  0  0  0  0  0  0  0  0  0  0  0
    6.8384   -7.9290   17.5282 N   0  0  0  0  0  0  0  0  0  0  0  0
    9.4126   -5.9853   18.4899 C   0  0  0  0  0  0  0  0  0  0  0  0
    4.2064  -10.3242   18.3302 C   0  0  0  0  0  0  0  0  0  0  0  0
    9.6599   -4.1551   16.4796 N   0  0  0  0  0  0  0  0  0  0  0  0
    7.0644   -6.4612   15.7375 N   0  0  0  0  0  0  0  0  0  0  0  0
    5.3549   -9.6322   18.3190 C   0  0  0  0  0  0  0  0  0  0  0  0
   10.3704   -4.9638   18.6510 C   0  0  0  0  0  0  0  0  0  0  0  0
    5.5935   -8.6419   17.4234 C   0  0  0  0  0  0  0  0  0  0  0  0
   13.0726   -4.6648   23.3394 O   0  0  0  0  0  0  0  0  0  0  0  0
    8.5955   -6.0705   17.3996 C   0  0  0  0  0  0  0  0  0  0  0  0
    4.6223   -8.3832   16.5030 C   0  0  0  0  0  0  0  0  0  0  0  0
   12.4690   -5.2624   19.9024 C   0  0  0  0  0  0  0  0  0  0  0  0
    3.2548   -9.9919   17.4189 C   0  0  0  0  0  0  0  0  0  0  0  0
   12.4767   -4.7393   22.1790 C   0  0  0  0  0  0  0  0  0  0  0  0
    7.8593   -5.3772   15.3569 N   0  0  0  0  0  0  0  0  0  0  0  0
    7.4412   -6.9038   16.9283 C   0  0  0  0  0  0  0  0  0  0  0  0
  1 21  4  0
  1 23  4  0
  2  5  1  0
  2 13  4  0
  2 16  4  0
  3  6  4  0
  3  7  4  0
  4 13  4  0
  4 19  4  0
  4 24  4  0
  6 23  4  0
  7 16  1  0
  7 21  4  0
  8 18  1  0
  9 20  4  0
  9 22  4  0
 10 17  1  0
 10 25  1  0
 11 16  4  0
 11 19  4  0
 12 15  4  0
 12 22  4  0
 14 24  4  0
 14 25  4  0
 15 17  4  0
 17 20  4  0
 18 23  1  0
 19 25  4  0
M  END
$$$$

 Created by Python create_sdf_string function

 25 28  0  0  0  0  0  0  0  0999 V2000
   13.1533   -5.2399   21.0682 C   0  0  0  0  0  0  0  0  0  0  0  0
   10.4729   -4.0295   17.6135 C   0  0  0  0  0  0  0  0  0  0  0  0
   10.4789   -4.3641   20.9564 C   0  0  0  0  0  0  0  0  0  0  0  0
    8.7421   -5.1412   16.3650 C   0  0  0  0  0  0  0  0  0  0  0  0
   11.4353   -2.9204   17.8044 C   0  0  0  0  0  0  0  0  0  0  0  0
   11.1529   -4.3028   22.1277 C   0  0  0  0  0  0  0  0  0  0  0  0
   11.1290   -4.8502   19.8052 C   0  0  0  0  0  0  0  0  0  0  0  0
   12.4329   -4.2159   24.4224 C   0  0  0  0  0  0  0  0  0  0  0  0
    3.4740   -9.0387   16.5022 C   0  0  0  0  0  0  0  0  0  0  0  0
    6.8384   -7.9290   17.5282 N   0  0  0  0  0  0  0  0  0  0  0  0
    9.4126   -5.9853   18.4899 C   0  0  0  0  0  0  0  0  0  0  0  0
    4.2064  -10.3242   18.3302 C   0  0  0  0  0  0  0  0  0  0  0  0
    9.6599   -4.1551   16.4796 N   0  0  0  0  0  0  0  0  0  0  0  0
    7.0644   -6.4612   15.7375 N   0  0  0  0  0  0  0  0  0  0  0  0
    5.3549   -9.6322   18.3190 C   0  0  0  0  0  0  0  0  0  0  0  0
   10.3704   -4.9638   18.6510 C   0  0  0  0  0  0  0  0  0  0  0  0
    5.5935   -8.6419   17.4234 C   0  0  0  0  0  0  0  0  0  0  0  0
   13.0726   -4.6648   23.3394 O   0  0  0  0  0  0  0  0  0  0  0  0
    8.5955   -6.0705   17.3996 C   0  0  0  0  0  0  0  0  0  0  0  0
    4.6223   -8.3832   16.5030 C   0  0  0  0  0  0  0  0  0  0  0  0
   12.4690   -5.2624   19.9024 C   0  0  0  0  0  0  0  0  0  0  0  0
    3.2548   -9.9919   17.4189 C   0  0  0  0  0  0  0  0  0  0  0  0
   12.4767   -4.7393   22.1790 C   0  0  0  0  0  0  0  0  0  0  0  0
    7.8593   -5.3772   15.3569 N   0  0  0  0  0  0  0  0  0  0  0  0
    7.4412   -6.9038   16.9283 C   0  0  0  0  0  0  0  0  0  0  0  0
  1 21  4  0
  1 23  4  0
  2  5  1  0
  2 13  4  0
  2 16  4  0
  3  6  4  0
  3  7  4  0
  4 13  4  0
  4 19  4  0
  4 24  4  0
  6 23  4  0
  7 16  1  0
  7 21  4  0
  8 18  1  0
  9 20  4  0
  9 22  4  0
 10 17  1  0
 10 25  1  0
 11 16  4  0
 11 19  4  0
 12 15  4  0
 12 22  4  0
 14 24  4  0
 14 25  4  0
 15 17  4  0
 17 20  4  0
 18 23  1  0
 19 25  4  0
M  END
$$$$

 Created by Python create_sdf_string function

 25 28  0  0  0  0  0  0  0  0999 V2000
   13.1533   -5.2399   21.0682 C   0  0  0  0  0  0  0  0  0  0  0  0
   10.4729   -4.0295   17.6135 C   0  0  0  0  0  0  0  0  0  0  0  0
   10.4789   -4.3641   20.9564 C   0  0  0  0  0  0  0  0  0  0  0  0
    8.7421   -5.1412   16.3650 C   0  0  0  0  0  0  0  0  0  0  0  0
   11.4353   -2.9204   17.8044 C   0  0  0  0  0  0  0  0  0  0  0  0
   11.1529   -4.3028   22.1277 C   0  0  0  0  0  0  0  0  0  0  0  0
   11.1290   -4.8502   19.8052 C   0  0  0  0  0  0  0  0  0  0  0  0
   12.4329   -4.2159   24.4224 C   0  0  0  0  0  0  0  0  0  0  0  0
    3.4740   -9.0387   16.5022 C   0  0  0  0  0  0  0  0  0  0  0  0
    6.8384   -7.9290   17.5282 N   0  0  0  0  0  0  0  0  0  0  0  0
    9.4126   -5.9853   18.4899 C   0  0  0  0  0  0  0  0  0  0  0  0
    4.2064  -10.3242   18.3302 C   0  0  0  0  0  0  0  0  0  0  0  0
    9.6599   -4.1551   16.4796 N   0  0  0  0  0  0  0  0  0  0  0  0
    7.0644   -6.4612   15.7375 N   0  0  0  0  0  0  0  0  0  0  0  0
    5.3549   -9.6322   18.3190 C   0  0  0  0  0  0  0  0  0  0  0  0
   10.3704   -4.9638   18.6510 C   0  0  0  0  0  0  0  0  0  0  0  0
    5.5935   -8.6419   17.4234 C   0  0  0  0  0  0  0  0  0  0  0  0
   13.0726   -4.6648   23.3394 O   0  0  0  0  0  0  0  0  0  0  0  0
    8.5955   -6.0705   17.3996 C   0  0  0  0  0  0  0  0  0  0  0  0
    4.6223   -8.3832   16.5030 C   0  0  0  0  0  0  0  0  0  0  0  0
   12.4690   -5.2624   19.9024 C   0  0  0  0  0  0  0  0  0  0  0  0
    3.2548   -9.9919   17.4189 C   0  0  0  0  0  0  0  0  0  0  0  0
   12.4767   -4.7393   22.1790 C   0  0  0  0  0  0  0  0  0  0  0  0
    7.8593   -5.3772   15.3569 N   0  0  0  0  0  0  0  0  0  0  0  0
    7.4412   -6.9038   16.9283 C   0  0  0  0  0  0  0  0  0  0  0  0
  1 21  4  0
  1 23  4  0
  2  5  1  0
  2 13  4  0
  2 16  4  0
  3  6  4  0
  3  7  4  0
  4 13  4  0
  4 19  4  0
  4 24  4  0
  6 23  4  0
  7 16  1  0
  7 21  4  0
  8 18  1  0
  9 20  4  0
  9 22  4  0
 10 17  1  0
 10 25  1  0
 11 16  4  0
 11 19  4  0
 12 15  4  0
 12 22  4  0
 14 24  4  0
 14 25  4  0
 15 17  4  0
 17 20  4  0
 18 23  1  0
 19 25  4  0
M  END
$$$$

 Created by Python create_sdf_string function

 25 28  0  0  0  0  0  0  0  0999 V2000
   13.1533   -5.2399   21.0682 C   0  0  0  0  0  0  0  0  0  0  0  0
   10.4729   -4.0295   17.6135 C   0  0  0  0  0  0  0  0  0  0  0  0
   10.4789   -4.3641   20.9564 C   0  0  0  0  0  0  0  0  0  0  0  0
    8.7421   -5.1412   16.3650 C   0  0  0  0  0  0  0  0  0  0  0  0
   11.4353   -2.9204   17.8044 C   0  0  0  0  0  0  0  0  0  0  0  0
   11.1529   -4.3028   22.1277 C   0  0  0  0  0  0  0  0  0  0  0  0
   11.1290   -4.8502   19.8052 C   0  0  0  0  0  0  0  0  0  0  0  0
   12.4329   -4.2159   24.4224 C   0  0  0  0  0  0  0  0  0  0  0  0
    3.4740   -9.0387   16.5022 C   0  0  0  0  0  0  0  0  0  0  0  0
    6.8384   -7.9290   17.5282 N   0  0  0  0  0  0  0  0  0  0  0  0
    9.4126   -5.9853   18.4899 C   0  0  0  0  0  0  0  0  0  0  0  0
    4.2064  -10.3242   18.3302 C   0  0  0  0  0  0  0  0  0  0  0  0
    9.6599   -4.1551   16.4796 N   0  0  0  0  0  0  0  0  0  0  0  0
    7.0644   -6.4612   15.7375 N   0  0  0  0  0  0  0  0  0  0  0  0
    5.3549   -9.6322   18.3190 C   0  0  0  0  0  0  0  0  0  0  0  0
   10.3704   -4.9638   18.6510 C   0  0  0  0  0  0  0  0  0  0  0  0
    5.5935   -8.6419   17.4234 C   0  0  0  0  0  0  0  0  0  0  0  0
   13.0726   -4.6648   23.3394 O   0  0  0  0  0  0  0  0  0  0  0  0
    8.5955   -6.0705   17.3996 C   0  0  0  0  0  0  0  0  0  0  0  0
    4.6223   -8.3832   16.5030 C   0  0  0  0  0  0  0  0  0  0  0  0
   12.4690   -5.2624   19.9024 C   0  0  0  0  0  0  0  0  0  0  0  0
    3.2548   -9.9919   17.4189 C   0  0  0  0  0  0  0  0  0  0  0  0
   12.4767   -4.7393   22.1790 C   0  0  0  0  0  0  0  0  0  0  0  0
    7.8593   -5.3772   15.3569 N   0  0  0  0  0  0  0  0  0  0  0  0
    7.4412   -6.9038   16.9283 C   0  0  0  0  0  0  0  0  0  0  0  0
  1 21  4  0
  1 23  4  0
  2  5  1  0
  2 13  4  0
  2 16  4  0
  3  6  4  0
  3  7  4  0
  4 13  4  0
  4 19  4  0
  4 24  4  0
  6 23  4  0
  7 16  1  0
  7 21  4  0
  8 18  1  0
  9 20  4  0
  9 22  4  0
 10 17  1  0
 10 25  1  0
 11 16  4  0
 11 19  4  0
 12 15  4  0
 12 22  4  0
 14 24  4  0
 14 25  4  0
 15 17  4  0
 17 20  4  0
 18 23  1  0
 19 25  4  0
M  END
$$$$

 Created by Python create_sdf_string function

 25 28  0  0  0  0  0  0  0  0999 V2000
   13.1533   -5.2399   21.0682 C   0  0  0  0  0  0  0  0  0  0  0  0
   10.4729   -4.0295   17.6135 C   0  0  0  0  0  0  0  0  0  0  0  0
   10.4789   -4.3641   20.9564 C   0  0  0  0  0  0  0  0  0  0  0  0
    8.7421   -5.1412   16.3650 C   0  0  0  0  0  0  0  0  0  0  0  0
   11.4353   -2.9204   17.8044 C   0  0  0  0  0  0  0  0  0  0  0  0
   11.1529   -4.3028   22.1277 C   0  0  0  0  0  0  0  0  0  0  0  0
   11.1290   -4.8502   19.8052 C   0  0  0  0  0  0  0  0  0  0  0  0
   12.4329   -4.2159   24.4224 C   0  0  0  0  0  0  0  0  0  0  0  0
    3.4740   -9.0387   16.5022 C   0  0  0  0  0  0  0  0  0  0  0  0
    6.8384   -7.9290   17.5282 N   0  0  0  0  0  0  0  0  0  0  0  0
    9.4126   -5.9853   18.4899 C   0  0  0  0  0  0  0  0  0  0  0  0
    4.2064  -10.3242   18.3302 C   0  0  0  0  0  0  0  0  0  0  0  0
    9.6599   -4.1551   16.4796 N   0  0  0  0  0  0  0  0  0  0  0  0
    7.0644   -6.4612   15.7375 N   0  0  0  0  0  0  0  0  0  0  0  0
    5.3549   -9.6322   18.3190 C   0  0  0  0  0  0  0  0  0  0  0  0
   10.3704   -4.9638   18.6510 C   0  0  0  0  0  0  0  0  0  0  0  0
    5.5935   -8.6419   17.4234 C   0  0  0  0  0  0  0  0  0  0  0  0
   13.0726   -4.6648   23.3394 O   0  0  0  0  0  0  0  0  0  0  0  0
    8.5955   -6.0705   17.3996 C   0  0  0  0  0  0  0  0  0  0  0  0
    4.6223   -8.3832   16.5030 C   0  0  0  0  0  0  0  0  0  0  0  0
   12.4690   -5.2624   19.9024 C   0  0  0  0  0  0  0  0  0  0  0  0
    3.2548   -9.9919   17.4189 C   0  0  0  0  0  0  0  0  0  0  0  0
   12.4767   -4.7393   22.1790 C   0  0  0  0  0  0  0  0  0  0  0  0
    7.8593   -5.3772   15.3569 N   0  0  0  0  0  0  0  0  0  0  0  0
    7.4412   -6.9038   16.9283 C   0  0  0  0  0  0  0  0  0  0  0  0
  1 21  4  0
  1 23  4  0
  2  5  1  0
  2 13  4  0
  2 16  4  0
  3  6  4  0
  3  7  4  0
  4 13  4  0
  4 19  4  0
  4 24  4  0
  6 23  4  0
  7 16  1  0
  7 21  4  0
  8 18  1  0
  9 20  4  0
  9 22  4  0
 10 17  1  0
 10 25  1  0
 11 16  4  0
 11 19  4  0
 12 15  4  0
 12 22  4  0
 14 24  4  0
 14 25  4  0
 15 17  4  0
 17 20  4  0
 18 23  1  0
 19 25  4  0
M  END
$$$$

 Created by Python create_sdf_string function

 25 28  0  0  0  0  0  0  0  0999 V2000
   13.1533   -5.2399   21.0682 C   0  0  0  0  0  0  0  0  0  0  0  0
   10.4729   -4.0295   17.6135 C   0  0  0  0  0  0  0  0  0  0  0  0
   10.4789   -4.3641   20.9564 C   0  0  0  0  0  0  0  0  0  0  0  0
    8.7421   -5.1412   16.3650 C   0  0  0  0  0  0  0  0  0  0  0  0
   11.4353   -2.9204   17.8044 C   0  0  0  0  0  0  0  0  0  0  0  0
   11.1529   -4.3028   22.1277 C   0  0  0  0  0  0  0  0  0  0  0  0
   11.1290   -4.8502   19.8052 C   0  0  0  0  0  0  0  0  0  0  0  0
   12.4329   -4.2159   24.4224 C   0  0  0  0  0  0  0  0  0  0  0  0
    3.4740   -9.0387   16.5022 C   0  0  0  0  0  0  0  0  0  0  0  0
    6.8384   -7.9290   17.5282 N   0  0  0  0  0  0  0  0  0  0  0  0
    9.4126   -5.9853   18.4899 C   0  0  0  0  0  0  0  0  0  0  0  0
    4.2064  -10.3242   18.3302 C   0  0  0  0  0  0  0  0  0  0  0  0
    9.6599   -4.1551   16.4796 N   0  0  0  0  0  0  0  0  0  0  0  0
    7.0644   -6.4612   15.7375 N   0  0  0  0  0  0  0  0  0  0  0  0
    5.3549   -9.6322   18.3190 C   0  0  0  0  0  0  0  0  0  0  0  0
   10.3704   -4.9638   18.6510 C   0  0  0  0  0  0  0  0  0  0  0  0
    5.5935   -8.6419   17.4234 C   0  0  0  0  0  0  0  0  0  0  0  0
   13.0726   -4.6648   23.3394 O   0  0  0  0  0  0  0  0  0  0  0  0
    8.5955   -6.0705   17.3996 C   0  0  0  0  0  0  0  0  0  0  0  0
    4.6223   -8.3832   16.5030 C   0  0  0  0  0  0  0  0  0  0  0  0
   12.4690   -5.2624   19.9024 C   0  0  0  0  0  0  0  0  0  0  0  0
    3.2548   -9.9919   17.4189 C   0  0  0  0  0  0  0  0  0  0  0  0
   12.4767   -4.7393   22.1790 C   0  0  0  0  0  0  0  0  0  0  0  0
    7.8593   -5.3772   15.3569 N   0  0  0  0  0  0  0  0  0  0  0  0
    7.4412   -6.9038   16.9283 C   0  0  0  0  0  0  0  0  0  0  0  0
  1 21  4  0
  1 23  4  0
  2  5  1  0
  2 13  4  0
  2 16  4  0
  3  6  4  0
  3  7  4  0
  4 13  4  0
  4 19  4  0
  4 24  4  0
  6 23  4  0
  7 16  1  0
  7 21  4  0
  8 18  1  0
  9 20  4  0
  9 22  4  0
 10 17  1  0
 10 25  1  0
 11 16  4  0
 11 19  4  0
 12 15  4  0
 12 22  4  0
 14 24  4  0
 14 25  4  0
 15 17  4  0
 17 20  4  0
 18 23  1  0
 19 25  4  0
M  END
$$$$

 Created by Python create_sdf_string function

 25 28  0  0  0  0  0  0  0  0999 V2000
   13.1533   -5.2399   21.0682 C   0  0  0  0  0  0  0  0  0  0  0  0
   10.4729   -4.0295   17.6135 C   0  0  0  0  0  0  0  0  0  0  0  0
   10.4789   -4.3641   20.9564 C   0  0  0  0  0  0  0  0  0  0  0  0
    8.7421   -5.1412   16.3650 C   0  0  0  0  0  0  0  0  0  0  0  0
   11.4353   -2.9204   17.8044 C   0  0  0  0  0  0  0  0  0  0  0  0
   11.1529   -4.3028   22.1277 C   0  0  0  0  0  0  0  0  0  0  0  0
   11.1290   -4.8502   19.8052 C   0  0  0  0  0  0  0  0  0  0  0  0
   12.4329   -4.2159   24.4224 C   0  0  0  0  0  0  0  0  0  0  0  0
    3.4740   -9.0387   16.5022 C   0  0  0  0  0  0  0  0  0  0  0  0
    6.8384   -7.9290   17.5282 N   0  0  0  0  0  0  0  0  0  0  0  0
    9.4126   -5.9853   18.4899 C   0  0  0  0  0  0  0  0  0  0  0  0
    4.2064  -10.3242   18.3302 C   0  0  0  0  0  0  0  0  0  0  0  0
    9.6599   -4.1551   16.4796 N   0  0  0  0  0  0  0  0  0  0  0  0
    7.0644   -6.4612   15.7375 N   0  0  0  0  0  0  0  0  0  0  0  0
    5.3549   -9.6322   18.3190 C   0  0  0  0  0  0  0  0  0  0  0  0
   10.3704   -4.9638   18.6510 C   0  0  0  0  0  0  0  0  0  0  0  0
    5.5935   -8.6419   17.4234 C   0  0  0  0  0  0  0  0  0  0  0  0
   13.0726   -4.6648   23.3394 O   0  0  0  0  0  0  0  0  0  0  0  0
    8.5955   -6.0705   17.3996 C   0  0  0  0  0  0  0  0  0  0  0  0
    4.6223   -8.3832   16.5030 C   0  0  0  0  0  0  0  0  0  0  0  0
   12.4690   -5.2624   19.9024 C   0  0  0  0  0  0  0  0  0  0  0  0
    3.2548   -9.9919   17.4189 C   0  0  0  0  0  0  0  0  0  0  0  0
   12.4767   -4.7393   22.1790 C   0  0  0  0  0  0  0  0  0  0  0  0
    7.8593   -5.3772   15.3569 N   0  0  0  0  0  0  0  0  0  0  0  0
    7.4412   -6.9038   16.9283 C   0  0  0  0  0  0  0  0  0  0  0  0
  1 21  4  0
  1 23  4  0
  2  5  1  0
  2 13  4  0
  2 16  4  0
  3  6  4  0
  3  7  4  0
  4 13  4  0
  4 19  4  0
  4 24  4  0
  6 23  4  0
  7 16  1  0
  7 21  4  0
  8 18  1  0
  9 20  4  0
  9 22  4  0
 10 17  1  0
 10 25  1  0
 11 16  4  0
 11 19  4  0
 12 15  4  0
 12 22  4  0
 14 24  4  0
 14 25  4  0
 15 17  4  0
 17 20  4  0
 18 23  1  0
 19 25  4  0
M  END
$$$$

 Created by Python create_sdf_string function

 25 28  0  0  0  0  0  0  0  0999 V2000
   13.1533   -5.2399   21.0682 C   0  0  0  0  0  0  0  0  0  0  0  0
   10.4729   -4.0295   17.6135 C   0  0  0  0  0  0  0  0  0  0  0  0
   10.4789   -4.3641   20.9564 C   0  0  0  0  0  0  0  0  0  0  0  0
    8.7421   -5.1412   16.3650 C   0  0  0  0  0  0  0  0  0  0  0  0
   11.4353   -2.9204   17.8044 C   0  0  0  0  0  0  0  0  0  0  0  0
   11.1529   -4.3028   22.1277 C   0  0  0  0  0  0  0  0  0  0  0  0
   11.1290   -4.8502   19.8052 C   0  0  0  0  0  0  0  0  0  0  0  0
   12.4329   -4.2159   24.4224 C   0  0  0  0  0  0  0  0  0  0  0  0
    3.4740   -9.0387   16.5022 C   0  0  0  0  0  0  0  0  0  0  0  0
    6.8384   -7.9290   17.5282 N   0  0  0  0  0  0  0  0  0  0  0  0
    9.4126   -5.9853   18.4899 C   0  0  0  0  0  0  0  0  0  0  0  0
    4.2064  -10.3242   18.3302 C   0  0  0  0  0  0  0  0  0  0  0  0
    9.6599   -4.1551   16.4796 N   0  0  0  0  0  0  0  0  0  0  0  0
    7.0644   -6.4612   15.7375 N   0  0  0  0  0  0  0  0  0  0  0  0
    5.3549   -9.6322   18.3190 C   0  0  0  0  0  0  0  0  0  0  0  0
   10.3704   -4.9638   18.6510 C   0  0  0  0  0  0  0  0  0  0  0  0
    5.5935   -8.6419   17.4234 C   0  0  0  0  0  0  0  0  0  0  0  0
   13.0726   -4.6648   23.3394 O   0  0  0  0  0  0  0  0  0  0  0  0
    8.5955   -6.0705   17.3996 C   0  0  0  0  0  0  0  0  0  0  0  0
    4.6223   -8.3832   16.5030 C   0  0  0  0  0  0  0  0  0  0  0  0
   12.4690   -5.2624   19.9024 C   0  0  0  0  0  0  0  0  0  0  0  0
    3.2548   -9.9919   17.4189 C   0  0  0  0  0  0  0  0  0  0  0  0
   12.4767   -4.7393   22.1790 C   0  0  0  0  0  0  0  0  0  0  0  0
    7.8593   -5.3772   15.3569 N   0  0  0  0  0  0  0  0  0  0  0  0
    7.4412   -6.9038   16.9283 C   0  0  0  0  0  0  0  0  0  0  0  0
  1 21  4  0
  1 23  4  0
  2  5  1  0
  2 13  4  0
  2 16  4  0
  3  6  4  0
  3  7  4  0
  4 13  4  0
  4 19  4  0
  4 24  4  0
  6 23  4  0
  7 16  1  0
  7 21  4  0
  8 18  1  0
  9 20  4  0
  9 22  4  0
 10 17  1  0
 10 25  1  0
 11 16  4  0
 11 19  4  0
 12 15  4  0
 12 22  4  0
 14 24  4  0
 14 25  4  0
 15 17  4  0
 17 20  4  0
 18 23  1  0
 19 25  4  0
M  END
$$$$

 Created by Python create_sdf_string function

 25 28  0  0  0  0  0  0  0  0999 V2000
   13.1533   -5.2399   21.0682 C   0  0  0  0  0  0  0  0  0  0  0  0
   10.4729   -4.0295   17.6135 C   0  0  0  0  0  0  0  0  0  0  0  0
   10.4789   -4.3641   20.9564 C   0  0  0  0  0  0  0  0  0  0  0  0
    8.7421   -5.1412   16.3650 C   0  0  0  0  0  0  0  0  0  0  0  0
   11.4353   -2.9204   17.8044 C   0  0  0  0  0  0  0  0  0  0  0  0
   11.1529   -4.3028   22.1277 C   0  0  0  0  0  0  0  0  0  0  0  0
   11.1290   -4.8502   19.8052 C   0  0  0  0  0  0  0  0  0  0  0  0
   12.4329   -4.2159   24.4224 C   0  0  0  0  0  0  0  0  0  0  0  0
    3.4740   -9.0387   16.5022 C   0  0  0  0  0  0  0  0  0  0  0  0
    6.8384   -7.9290   17.5282 N   0  0  0  0  0  0  0  0  0  0  0  0
    9.4126   -5.9853   18.4899 C   0  0  0  0  0  0  0  0  0  0  0  0
    4.2064  -10.3242   18.3302 C   0  0  0  0  0  0  0  0  0  0  0  0
    9.6599   -4.1551   16.4796 N   0  0  0  0  0  0  0  0  0  0  0  0
    7.0644   -6.4612   15.7375 N   0  0  0  0  0  0  0  0  0  0  0  0
    5.3549   -9.6322   18.3190 C   0  0  0  0  0  0  0  0  0  0  0  0
   10.3704   -4.9638   18.6510 C   0  0  0  0  0  0  0  0  0  0  0  0
    5.5935   -8.6419   17.4234 C   0  0  0  0  0  0  0  0  0  0  0  0
   13.0726   -4.6648   23.3394 O   0  0  0  0  0  0  0  0  0  0  0  0
    8.5955   -6.0705   17.3996 C   0  0  0  0  0  0  0  0  0  0  0  0
    4.6223   -8.3832   16.5030 C   0  0  0  0  0  0  0  0  0  0  0  0
   12.4690   -5.2624   19.9024 C   0  0  0  0  0  0  0  0  0  0  0  0
    3.2548   -9.9919   17.4189 C   0  0  0  0  0  0  0  0  0  0  0  0
   12.4767   -4.7393   22.1790 C   0  0  0  0  0  0  0  0  0  0  0  0
    7.8593   -5.3772   15.3569 N   0  0  0  0  0  0  0  0  0  0  0  0
    7.4412   -6.9038   16.9283 C   0  0  0  0  0  0  0  0  0  0  0  0
  1 21  4  0
  1 23  4  0
  2  5  1  0
  2 13  4  0
  2 16  4  0
  3  6  4  0
  3  7  4  0
  4 13  4  0
  4 19  4  0
  4 24  4  0
  6 23  4  0
  7 16  1  0
  7 21  4  0
  8 18  1  0
  9 20  4  0
  9 22  4  0
 10 17  1  0
 10 25  1  0
 11 16  4  0
 11 19  4  0
 12 15  4  0
 12 22  4  0
 14 24  4  0
 14 25  4  0
 15 17  4  0
 17 20  4  0
 18 23  1  0
 19 25  4  0
M  END
$$$$

 Created by Python create_sdf_string function

 25 28  0  0  0  0  0  0  0  0999 V2000
   13.1533   -5.2399   21.0682 C   0  0  0  0  0  0  0  0  0  0  0  0
   10.4729   -4.0295   17.6135 C   0  0  0  0  0  0  0  0  0  0  0  0
   10.4789   -4.3641   20.9564 C   0  0  0  0  0  0  0  0  0  0  0  0
    8.7421   -5.1412   16.3650 C   0  0  0  0  0  0  0  0  0  0  0  0
   11.4353   -2.9204   17.8044 C   0  0  0  0  0  0  0  0  0  0  0  0
   11.1529   -4.3028   22.1277 C   0  0  0  0  0  0  0  0  0  0  0  0
   11.1290   -4.8502   19.8052 C   0  0  0  0  0  0  0  0  0  0  0  0
   12.4329   -4.2159   24.4224 C   0  0  0  0  0  0  0  0  0  0  0  0
    3.4740   -9.0387   16.5022 C   0  0  0  0  0  0  0  0  0  0  0  0
    6.8384   -7.9290   17.5282 N   0  0  0  0  0  0  0  0  0  0  0  0
    9.4126   -5.9853   18.4899 C   0  0  0  0  0  0  0  0  0  0  0  0
    4.2064  -10.3242   18.3302 C   0  0  0  0  0  0  0  0  0  0  0  0
    9.6599   -4.1551   16.4796 N   0  0  0  0  0  0  0  0  0  0  0  0
    7.0644   -6.4612   15.7375 N   0  0  0  0  0  0  0  0  0  0  0  0
    5.3549   -9.6322   18.3190 C   0  0  0  0  0  0  0  0  0  0  0  0
   10.3704   -4.9638   18.6510 C   0  0  0  0  0  0  0  0  0  0  0  0
    5.5935   -8.6419   17.4234 C   0  0  0  0  0  0  0  0  0  0  0  0
   13.0726   -4.6648   23.3394 O   0  0  0  0  0  0  0  0  0  0  0  0
    8.5955   -6.0705   17.3996 C   0  0  0  0  0  0  0  0  0  0  0  0
    4.6223   -8.3832   16.5030 C   0  0  0  0  0  0  0  0  0  0  0  0
   12.4690   -5.2624   19.9024 C   0  0  0  0  0  0  0  0  0  0  0  0
    3.2548   -9.9919   17.4189 C   0  0  0  0  0  0  0  0  0  0  0  0
   12.4767   -4.7393   22.1790 C   0  0  0  0  0  0  0  0  0  0  0  0
    7.8593   -5.3772   15.3569 N   0  0  0  0  0  0  0  0  0  0  0  0
    7.4412   -6.9038   16.9283 C   0  0  0  0  0  0  0  0  0  0  0  0
  1 21  4  0
  1 23  4  0
  2  5  1  0
  2 13  4  0
  2 16  4  0
  3  6  4  0
  3  7  4  0
  4 13  4  0
  4 19  4  0
  4 24  4  0
  6 23  4  0
  7 16  1  0
  7 21  4  0
  8 18  1  0
  9 20  4  0
  9 22  4  0
 10 17  1  0
 10 25  1  0
 11 16  4  0
 11 19  4  0
 12 15  4  0
 12 22  4  0
 14 24  4  0
 14 25  4  0
 15 17  4  0
 17 20  4  0
 18 23  1  0
 19 25  4  0
M  END
$$$$

 Created by Python create_sdf_string function

 25 28  0  0  0  0  0  0  0  0999 V2000
   13.1533   -5.2399   21.0682 C   0  0  0  0  0  0  0  0  0  0  0  0
   10.4729   -4.0295   17.6135 C   0  0  0  0  0  0  0  0  0  0  0  0
   10.4789   -4.3641   20.9564 C   0  0  0  0  0  0  0  0  0  0  0  0
    8.7421   -5.1412   16.3650 C   0  0  0  0  0  0  0  0  0  0  0  0
   11.4353   -2.9204   17.8044 C   0  0  0  0  0  0  0  0  0  0  0  0
   11.1529   -4.3028   22.1277 C   0  0  0  0  0  0  0  0  0  0  0  0
   11.1290   -4.8502   19.8052 C   0  0  0  0  0  0  0  0  0  0  0  0
   12.4329   -4.2159   24.4224 C   0  0  0  0  0  0  0  0  0  0  0  0
    3.4740   -9.0387   16.5022 C   0  0  0  0  0  0  0  0  0  0  0  0
    6.8384   -7.9290   17.5282 N   0  0  0  0  0  0  0  0  0  0  0  0
    9.4126   -5.9853   18.4899 C   0  0  0  0  0  0  0  0  0  0  0  0
    4.2064  -10.3242   18.3302 C   0  0  0  0  0  0  0  0  0  0  0  0
    9.6599   -4.1551   16.4796 N   0  0  0  0  0  0  0  0  0  0  0  0
    7.0644   -6.4612   15.7375 N   0  0  0  0  0  0  0  0  0  0  0  0
    5.3549   -9.6322   18.3190 C   0  0  0  0  0  0  0  0  0  0  0  0
   10.3704   -4.9638   18.6510 C   0  0  0  0  0  0  0  0  0  0  0  0
    5.5935   -8.6419   17.4234 C   0  0  0  0  0  0  0  0  0  0  0  0
   13.0726   -4.6648   23.3394 O   0  0  0  0  0  0  0  0  0  0  0  0
    8.5955   -6.0705   17.3996 C   0  0  0  0  0  0  0  0  0  0  0  0
    4.6223   -8.3832   16.5030 C   0  0  0  0  0  0  0  0  0  0  0  0
   12.4690   -5.2624   19.9024 C   0  0  0  0  0  0  0  0  0  0  0  0
    3.2548   -9.9919   17.4189 C   0  0  0  0  0  0  0  0  0  0  0  0
   12.4767   -4.7393   22.1790 C   0  0  0  0  0  0  0  0  0  0  0  0
    7.8593   -5.3772   15.3569 N   0  0  0  0  0  0  0  0  0  0  0  0
    7.4412   -6.9038   16.9283 C   0  0  0  0  0  0  0  0  0  0  0  0
  1 21  4  0
  1 23  4  0
  2  5  1  0
  2 13  4  0
  2 16  4  0
  3  6  4  0
  3  7  4  0
  4 13  4  0
  4 19  4  0
  4 24  4  0
  6 23  4  0
  7 16  1  0
  7 21  4  0
  8 18  1  0
  9 20  4  0
  9 22  4  0
 10 17  1  0
 10 25  1  0
 11 16  4  0
 11 19  4  0
 12 15  4  0
 12 22  4  0
 14 24  4  0
 14 25  4  0
 15 17  4  0
 17 20  4  0
 18 23  1  0
 19 25  4  0
M  END
$$$$

 Created by Python create_sdf_string function

 25 28  0  0  0  0  0  0  0  0999 V2000
   13.1533   -5.2399   21.0682 C   0  0  0  0  0  0  0  0  0  0  0  0
   10.4729   -4.0295   17.6135 C   0  0  0  0  0  0  0  0  0  0  0  0
   10.4789   -4.3641   20.9564 C   0  0  0  0  0  0  0  0  0  0  0  0
    8.7421   -5.1412   16.3650 C   0  0  0  0  0  0  0  0  0  0  0  0
   11.4353   -2.9204   17.8044 C   0  0  0  0  0  0  0  0  0  0  0  0
   11.1529   -4.3028   22.1277 C   0  0  0  0  0  0  0  0  0  0  0  0
   11.1290   -4.8502   19.8052 C   0  0  0  0  0  0  0  0  0  0  0  0
   12.4329   -4.2159   24.4224 C   0  0  0  0  0  0  0  0  0  0  0  0
    3.4740   -9.0387   16.5022 C   0  0  0  0  0  0  0  0  0  0  0  0
    6.8384   -7.9290   17.5282 N   0  0  0  0  0  0  0  0  0  0  0  0
    9.4126   -5.9853   18.4899 C   0  0  0  0  0  0  0  0  0  0  0  0
    4.2064  -10.3242   18.3302 C   0  0  0  0  0  0  0  0  0  0  0  0
    9.6599   -4.1551   16.4796 N   0  0  0  0  0  0  0  0  0  0  0  0
    7.0644   -6.4612   15.7375 N   0  0  0  0  0  0  0  0  0  0  0  0
    5.3549   -9.6322   18.3190 C   0  0  0  0  0  0  0  0  0  0  0  0
   10.3704   -4.9638   18.6510 C   0  0  0  0  0  0  0  0  0  0  0  0
    5.5935   -8.6419   17.4234 C   0  0  0  0  0  0  0  0  0  0  0  0
   13.0726   -4.6648   23.3394 O   0  0  0  0  0  0  0  0  0  0  0  0
    8.5955   -6.0705   17.3996 C   0  0  0  0  0  0  0  0  0  0  0  0
    4.6223   -8.3832   16.5030 C   0  0  0  0  0  0  0  0  0  0  0  0
   12.4690   -5.2624   19.9024 C   0  0  0  0  0  0  0  0  0  0  0  0
    3.2548   -9.9919   17.4189 C   0  0  0  0  0  0  0  0  0  0  0  0
   12.4767   -4.7393   22.1790 C   0  0  0  0  0  0  0  0  0  0  0  0
    7.8593   -5.3772   15.3569 N   0  0  0  0  0  0  0  0  0  0  0  0
    7.4412   -6.9038   16.9283 C   0  0  0  0  0  0  0  0  0  0  0  0
  1 21  4  0
  1 23  4  0
  2  5  1  0
  2 13  4  0
  2 16  4  0
  3  6  4  0
  3  7  4  0
  4 13  4  0
  4 19  4  0
  4 24  4  0
  6 23  4  0
  7 16  1  0
  7 21  4  0
  8 18  1  0
  9 20  4  0
  9 22  4  0
 10 17  1  0
 10 25  1  0
 11 16  4  0
 11 19  4  0
 12 15  4  0
 12 22  4  0
 14 24  4  0
 14 25  4  0
 15 17  4  0
 17 20  4  0
 18 23  1  0
 19 25  4  0
M  END
$$$$

 Created by Python create_sdf_string function

 25 28  0  0  0  0  0  0  0  0999 V2000
   13.1533   -5.2399   21.0682 C   0  0  0  0  0  0  0  0  0  0  0  0
   10.4729   -4.0295   17.6135 C   0  0  0  0  0  0  0  0  0  0  0  0
   10.4789   -4.3641   20.9564 C   0  0  0  0  0  0  0  0  0  0  0  0
    8.7421   -5.1412   16.3650 C   0  0  0  0  0  0  0  0  0  0  0  0
   11.4353   -2.9204   17.8044 C   0  0  0  0  0  0  0  0  0  0  0  0
   11.1529   -4.3028   22.1277 C   0  0  0  0  0  0  0  0  0  0  0  0
   11.1290   -4.8502   19.8052 C   0  0  0  0  0  0  0  0  0  0  0  0
   12.4329   -4.2159   24.4224 C   0  0  0  0  0  0  0  0  0  0  0  0
    3.4740   -9.0387   16.5022 C   0  0  0  0  0  0  0  0  0  0  0  0
    6.8384   -7.9290   17.5282 N   0  0  0  0  0  0  0  0  0  0  0  0
    9.4126   -5.9853   18.4899 C   0  0  0  0  0  0  0  0  0  0  0  0
    4.2064  -10.3242   18.3302 C   0  0  0  0  0  0  0  0  0  0  0  0
    9.6599   -4.1551   16.4796 N   0  0  0  0  0  0  0  0  0  0  0  0
    7.0644   -6.4612   15.7375 N   0  0  0  0  0  0  0  0  0  0  0  0
    5.3549   -9.6322   18.3190 C   0  0  0  0  0  0  0  0  0  0  0  0
   10.3704   -4.9638   18.6510 C   0  0  0  0  0  0  0  0  0  0  0  0
    5.5935   -8.6419   17.4234 C   0  0  0  0  0  0  0  0  0  0  0  0
   13.0726   -4.6648   23.3394 O   0  0  0  0  0  0  0  0  0  0  0  0
    8.5955   -6.0705   17.3996 C   0  0  0  0  0  0  0  0  0  0  0  0
    4.6223   -8.3832   16.5030 C   0  0  0  0  0  0  0  0  0  0  0  0
   12.4690   -5.2624   19.9024 C   0  0  0  0  0  0  0  0  0  0  0  0
    3.2548   -9.9919   17.4189 C   0  0  0  0  0  0  0  0  0  0  0  0
   12.4767   -4.7393   22.1790 C   0  0  0  0  0  0  0  0  0  0  0  0
    7.8593   -5.3772   15.3569 N   0  0  0  0  0  0  0  0  0  0  0  0
    7.4412   -6.9038   16.9283 C   0  0  0  0  0  0  0  0  0  0  0  0
  1 21  4  0
  1 23  4  0
  2  5  1  0
  2 13  4  0
  2 16  4  0
  3  6  4  0
  3  7  4  0
  4 13  4  0
  4 19  4  0
  4 24  4  0
  6 23  4  0
  7 16  1  0
  7 21  4  0
  8 18  1  0
  9 20  4  0
  9 22  4  0
 10 17  1  0
 10 25  1  0
 11 16  4  0
 11 19  4  0
 12 15  4  0
 12 22  4  0
 14 24  4  0
 14 25  4  0
 15 17  4  0
 17 20  4  0
 18 23  1  0
 19 25  4  0
M  END
$$$$

 Created by Python create_sdf_string function

 25 28  0  0  0  0  0  0  0  0999 V2000
   13.1533   -5.2399   21.0682 C   0  0  0  0  0  0  0  0  0  0  0  0
   10.4729   -4.0295   17.6135 C   0  0  0  0  0  0  0  0  0  0  0  0
   10.4789   -4.3641   20.9564 C   0  0  0  0  0  0  0  0  0  0  0  0
    8.7421   -5.1412   16.3650 C   0  0  0  0  0  0  0  0  0  0  0  0
   11.4353   -2.9204   17.8044 C   0  0  0  0  0  0  0  0  0  0  0  0
   11.1529   -4.3028   22.1277 C   0  0  0  0  0  0  0  0  0  0  0  0
   11.1290   -4.8502   19.8052 C   0  0  0  0  0  0  0  0  0  0  0  0
   12.4329   -4.2159   24.4224 C   0  0  0  0  0  0  0  0  0  0  0  0
    3.4740   -9.0387   16.5022 C   0  0  0  0  0  0  0  0  0  0  0  0
    6.8384   -7.9290   17.5282 N   0  0  0  0  0  0  0  0  0  0  0  0
    9.4126   -5.9853   18.4899 C   0  0  0  0  0  0  0  0  0  0  0  0
    4.2064  -10.3242   18.3302 C   0  0  0  0  0  0  0  0  0  0  0  0
    9.6599   -4.1551   16.4796 N   0  0  0  0  0  0  0  0  0  0  0  0
    7.0644   -6.4612   15.7375 N   0  0  0  0  0  0  0  0  0  0  0  0
    5.3549   -9.6322   18.3190 C   0  0  0  0  0  0  0  0  0  0  0  0
   10.3704   -4.9638   18.6510 C   0  0  0  0  0  0  0  0  0  0  0  0
    5.5935   -8.6419   17.4234 C   0  0  0  0  0  0  0  0  0  0  0  0
   13.0726   -4.6648   23.3394 O   0  0  0  0  0  0  0  0  0  0  0  0
    8.5955   -6.0705   17.3996 C   0  0  0  0  0  0  0  0  0  0  0  0
    4.6223   -8.3832   16.5030 C   0  0  0  0  0  0  0  0  0  0  0  0
   12.4690   -5.2624   19.9024 C   0  0  0  0  0  0  0  0  0  0  0  0
    3.2548   -9.9919   17.4189 C   0  0  0  0  0  0  0  0  0  0  0  0
   12.4767   -4.7393   22.1790 C   0  0  0  0  0  0  0  0  0  0  0  0
    7.8593   -5.3772   15.3569 N   0  0  0  0  0  0  0  0  0  0  0  0
    7.4412   -6.9038   16.9283 C   0  0  0  0  0  0  0  0  0  0  0  0
  1 21  4  0
  1 23  4  0
  2  5  1  0
  2 13  4  0
  2 16  4  0
  3  6  4  0
  3  7  4  0
  4 13  4  0
  4 19  4  0
  4 24  4  0
  6 23  4  0
  7 16  1  0
  7 21  4  0
  8 18  1  0
  9 20  4  0
  9 22  4  0
 10 17  1  0
 10 25  1  0
 11 16  4  0
 11 19  4  0
 12 15  4  0
 12 22  4  0
 14 24  4  0
 14 25  4  0
 15 17  4  0
 17 20  4  0
 18 23  1  0
 19 25  4  0
M  END
$$$$

 Created by Python create_sdf_string function

 25 28  0  0  0  0  0  0  0  0999 V2000
   13.1533   -5.2399   21.0682 C   0  0  0  0  0  0  0  0  0  0  0  0
   10.4729   -4.0295   17.6135 C   0  0  0  0  0  0  0  0  0  0  0  0
   10.4789   -4.3641   20.9564 C   0  0  0  0  0  0  0  0  0  0  0  0
    8.7421   -5.1412   16.3650 C   0  0  0  0  0  0  0  0  0  0  0  0
   11.4353   -2.9204   17.8044 C   0  0  0  0  0  0  0  0  0  0  0  0
   11.1529   -4.3028   22.1277 C   0  0  0  0  0  0  0  0  0  0  0  0
   11.1290   -4.8502   19.8052 C   0  0  0  0  0  0  0  0  0  0  0  0
   12.4329   -4.2159   24.4224 C   0  0  0  0  0  0  0  0  0  0  0  0
    3.4740   -9.0387   16.5022 C   0  0  0  0  0  0  0  0  0  0  0  0
    6.8384   -7.9290   17.5282 N   0  0  0  0  0  0  0  0  0  0  0  0
    9.4126   -5.9853   18.4899 C   0  0  0  0  0  0  0  0  0  0  0  0
    4.2064  -10.3242   18.3302 C   0  0  0  0  0  0  0  0  0  0  0  0
    9.6599   -4.1551   16.4796 N   0  0  0  0  0  0  0  0  0  0  0  0
    7.0644   -6.4612   15.7375 N   0  0  0  0  0  0  0  0  0  0  0  0
    5.3549   -9.6322   18.3190 C   0  0  0  0  0  0  0  0  0  0  0  0
   10.3704   -4.9638   18.6510 C   0  0  0  0  0  0  0  0  0  0  0  0
    5.5935   -8.6419   17.4234 C   0  0  0  0  0  0  0  0  0  0  0  0
   13.0726   -4.6648   23.3394 O   0  0  0  0  0  0  0  0  0  0  0  0
    8.5955   -6.0705   17.3996 C   0  0  0  0  0  0  0  0  0  0  0  0
    4.6223   -8.3832   16.5030 C   0  0  0  0  0  0  0  0  0  0  0  0
   12.4690   -5.2624   19.9024 C   0  0  0  0  0  0  0  0  0  0  0  0
    3.2548   -9.9919   17.4189 C   0  0  0  0  0  0  0  0  0  0  0  0
   12.4767   -4.7393   22.1790 C   0  0  0  0  0  0  0  0  0  0  0  0
    7.8593   -5.3772   15.3569 N   0  0  0  0  0  0  0  0  0  0  0  0
    7.4412   -6.9038   16.9283 C   0  0  0  0  0  0  0  0  0  0  0  0
  1 21  4  0
  1 23  4  0
  2  5  1  0
  2 13  4  0
  2 16  4  0
  3  6  4  0
  3  7  4  0
  4 13  4  0
  4 19  4  0
  4 24  4  0
  6 23  4  0
  7 16  1  0
  7 21  4  0
  8 18  1  0
  9 20  4  0
  9 22  4  0
 10 17  1  0
 10 25  1  0
 11 16  4  0
 11 19  4  0
 12 15  4  0
 12 22  4  0
 14 24  4  0
 14 25  4  0
 15 17  4  0
 17 20  4  0
 18 23  1  0
 19 25  4  0
M  END
$$$$

 Created by Python create_sdf_string function

 25 28  0  0  0  0  0  0  0  0999 V2000
   13.1533   -5.2399   21.0682 C   0  0  0  0  0  0  0  0  0  0  0  0
   10.4729   -4.0295   17.6135 C   0  0  0  0  0  0  0  0  0  0  0  0
   10.4789   -4.3641   20.9564 C   0  0  0  0  0  0  0  0  0  0  0  0
    8.7421   -5.1412   16.3650 C   0  0  0  0  0  0  0  0  0  0  0  0
   11.4353   -2.9204   17.8044 C   0  0  0  0  0  0  0  0  0  0  0  0
   11.1529   -4.3028   22.1277 C   0  0  0  0  0  0  0  0  0  0  0  0
   11.1290   -4.8502   19.8052 C   0  0  0  0  0  0  0  0  0  0  0  0
   12.4329   -4.2159   24.4224 C   0  0  0  0  0  0  0  0  0  0  0  0
    3.4740   -9.0387   16.5022 C   0  0  0  0  0  0  0  0  0  0  0  0
    6.8384   -7.9290   17.5282 N   0  0  0  0  0  0  0  0  0  0  0  0
    9.4126   -5.9853   18.4899 C   0  0  0  0  0  0  0  0  0  0  0  0
    4.2064  -10.3242   18.3302 C   0  0  0  0  0  0  0  0  0  0  0  0
    9.6599   -4.1551   16.4796 N   0  0  0  0  0  0  0  0  0  0  0  0
    7.0644   -6.4612   15.7375 N   0  0  0  0  0  0  0  0  0  0  0  0
    5.3549   -9.6322   18.3190 C   0  0  0  0  0  0  0  0  0  0  0  0
   10.3704   -4.9638   18.6510 C   0  0  0  0  0  0  0  0  0  0  0  0
    5.5935   -8.6419   17.4234 C   0  0  0  0  0  0  0  0  0  0  0  0
   13.0726   -4.6648   23.3394 O   0  0  0  0  0  0  0  0  0  0  0  0
    8.5955   -6.0705   17.3996 C   0  0  0  0  0  0  0  0  0  0  0  0
    4.6223   -8.3832   16.5030 C   0  0  0  0  0  0  0  0  0  0  0  0
   12.4690   -5.2624   19.9024 C   0  0  0  0  0  0  0  0  0  0  0  0
    3.2548   -9.9919   17.4189 C   0  0  0  0  0  0  0  0  0  0  0  0
   12.4767   -4.7393   22.1790 C   0  0  0  0  0  0  0  0  0  0  0  0
    7.8593   -5.3772   15.3569 N   0  0  0  0  0  0  0  0  0  0  0  0
    7.4412   -6.9038   16.9283 C   0  0  0  0  0  0  0  0  0  0  0  0
  1 21  4  0
  1 23  4  0
  2  5  1  0
  2 13  4  0
  2 16  4  0
  3  6  4  0
  3  7  4  0
  4 13  4  0
  4 19  4  0
  4 24  4  0
  6 23  4  0
  7 16  1  0
  7 21  4  0
  8 18  1  0
  9 20  4  0
  9 22  4  0
 10 17  1  0
 10 25  1  0
 11 16  4  0
 11 19  4  0
 12 15  4  0
 12 22  4  0
 14 24  4  0
 14 25  4  0
 15 17  4  0
 17 20  4  0
 18 23  1  0
 19 25  4  0
M  END
$$$$

 Created by Python create_sdf_string function

 25 28  0  0  0  0  0  0  0  0999 V2000
   13.1533   -5.2399   21.0682 C   0  0  0  0  0  0  0  0  0  0  0  0
   10.4729   -4.0295   17.6135 C   0  0  0  0  0  0  0  0  0  0  0  0
   10.4789   -4.3641   20.9564 C   0  0  0  0  0  0  0  0  0  0  0  0
    8.7421   -5.1412   16.3650 C   0  0  0  0  0  0  0  0  0  0  0  0
   11.4353   -2.9204   17.8044 C   0  0  0  0  0  0  0  0  0  0  0  0
   11.1529   -4.3028   22.1277 C   0  0  0  0  0  0  0  0  0  0  0  0
   11.1290   -4.8502   19.8052 C   0  0  0  0  0  0  0  0  0  0  0  0
   12.4329   -4.2159   24.4224 C   0  0  0  0  0  0  0  0  0  0  0  0
    3.4740   -9.0387   16.5022 C   0  0  0  0  0  0  0  0  0  0  0  0
    6.8384   -7.9290   17.5282 N   0  0  0  0  0  0  0  0  0  0  0  0
    9.4126   -5.9853   18.4899 C   0  0  0  0  0  0  0  0  0  0  0  0
    4.2064  -10.3242   18.3302 C   0  0  0  0  0  0  0  0  0  0  0  0
    9.6599   -4.1551   16.4796 N   0  0  0  0  0  0  0  0  0  0  0  0
    7.0644   -6.4612   15.7375 N   0  0  0  0  0  0  0  0  0  0  0  0
    5.3549   -9.6322   18.3190 C   0  0  0  0  0  0  0  0  0  0  0  0
   10.3704   -4.9638   18.6510 C   0  0  0  0  0  0  0  0  0  0  0  0
    5.5935   -8.6419   17.4234 C   0  0  0  0  0  0  0  0  0  0  0  0
   13.0726   -4.6648   23.3394 O   0  0  0  0  0  0  0  0  0  0  0  0
    8.5955   -6.0705   17.3996 C   0  0  0  0  0  0  0  0  0  0  0  0
    4.6223   -8.3832   16.5030 C   0  0  0  0  0  0  0  0  0  0  0  0
   12.4690   -5.2624   19.9024 C   0  0  0  0  0  0  0  0  0  0  0  0
    3.2548   -9.9919   17.4189 C   0  0  0  0  0  0  0  0  0  0  0  0
   12.4767   -4.7393   22.1790 C   0  0  0  0  0  0  0  0  0  0  0  0
    7.8593   -5.3772   15.3569 N   0  0  0  0  0  0  0  0  0  0  0  0
    7.4412   -6.9038   16.9283 C   0  0  0  0  0  0  0  0  0  0  0  0
  1 21  4  0
  1 23  4  0
  2  5  1  0
  2 13  4  0
  2 16  4  0
  3  6  4  0
  3  7  4  0
  4 13  4  0
  4 19  4  0
  4 24  4  0
  6 23  4  0
  7 16  1  0
  7 21  4  0
  8 18  1  0
  9 20  4  0
  9 22  4  0
 10 17  1  0
 10 25  1  0
 11 16  4  0
 11 19  4  0
 12 15  4  0
 12 22  4  0
 14 24  4  0
 14 25  4  0
 15 17  4  0
 17 20  4  0
 18 23  1  0
 19 25  4  0
M  END
$$$$

 Created by Python create_sdf_string function

 25 28  0  0  0  0  0  0  0  0999 V2000
   13.1533   -5.2399   21.0682 C   0  0  0  0  0  0  0  0  0  0  0  0
   10.4729   -4.0295   17.6135 C   0  0  0  0  0  0  0  0  0  0  0  0
   10.4789   -4.3641   20.9564 C   0  0  0  0  0  0  0  0  0  0  0  0
    8.7421   -5.1412   16.3650 C   0  0  0  0  0  0  0  0  0  0  0  0
   11.4353   -2.9204   17.8044 C   0  0  0  0  0  0  0  0  0  0  0  0
   11.1529   -4.3028   22.1277 C   0  0  0  0  0  0  0  0  0  0  0  0
   11.1290   -4.8502   19.8052 C   0  0  0  0  0  0  0  0  0  0  0  0
   12.4329   -4.2159   24.4224 C   0  0  0  0  0  0  0  0  0  0  0  0
    3.4740   -9.0387   16.5022 C   0  0  0  0  0  0  0  0  0  0  0  0
    6.8384   -7.9290   17.5282 N   0  0  0  0  0  0  0  0  0  0  0  0
    9.4126   -5.9853   18.4899 C   0  0  0  0  0  0  0  0  0  0  0  0
    4.2064  -10.3242   18.3302 C   0  0  0  0  0  0  0  0  0  0  0  0
    9.6599   -4.1551   16.4796 N   0  0  0  0  0  0  0  0  0  0  0  0
    7.0644   -6.4612   15.7375 N   0  0  0  0  0  0  0  0  0  0  0  0
    5.3549   -9.6322   18.3190 C   0  0  0  0  0  0  0  0  0  0  0  0
   10.3704   -4.9638   18.6510 C   0  0  0  0  0  0  0  0  0  0  0  0
    5.5935   -8.6419   17.4234 C   0  0  0  0  0  0  0  0  0  0  0  0
   13.0726   -4.6648   23.3394 O   0  0  0  0  0  0  0  0  0  0  0  0
    8.5955   -6.0705   17.3996 C   0  0  0  0  0  0  0  0  0  0  0  0
    4.6223   -8.3832   16.5030 C   0  0  0  0  0  0  0  0  0  0  0  0
   12.4690   -5.2624   19.9024 C   0  0  0  0  0  0  0  0  0  0  0  0
    3.2548   -9.9919   17.4189 C   0  0  0  0  0  0  0  0  0  0  0  0
   12.4767   -4.7393   22.1790 C   0  0  0  0  0  0  0  0  0  0  0  0
    7.8593   -5.3772   15.3569 N   0  0  0  0  0  0  0  0  0  0  0  0
    7.4412   -6.9038   16.9283 C   0  0  0  0  0  0  0  0  0  0  0  0
  1 21  4  0
  1 23  4  0
  2  5  1  0
  2 13  4  0
  2 16  4  0
  3  6  4  0
  3  7  4  0
  4 13  4  0
  4 19  4  0
  4 24  4  0
  6 23  4  0
  7 16  1  0
  7 21  4  0
  8 18  1  0
  9 20  4  0
  9 22  4  0
 10 17  1  0
 10 25  1  0
 11 16  4  0
 11 19  4  0
 12 15  4  0
 12 22  4  0
 14 24  4  0
 14 25  4  0
 15 17  4  0
 17 20  4  0
 18 23  1  0
 19 25  4  0
M  END
$$$$

 Created by Python create_sdf_string function

 25 28  0  0  0  0  0  0  0  0999 V2000
   13.1533   -5.2399   21.0682 C   0  0  0  0  0  0  0  0  0  0  0  0
   10.4729   -4.0295   17.6135 C   0  0  0  0  0  0  0  0  0  0  0  0
   10.4789   -4.3641   20.9564 C   0  0  0  0  0  0  0  0  0  0  0  0
    8.7421   -5.1412   16.3650 C   0  0  0  0  0  0  0  0  0  0  0  0
   11.4353   -2.9204   17.8044 C   0  0  0  0  0  0  0  0  0  0  0  0
   11.1529   -4.3028   22.1277 C   0  0  0  0  0  0  0  0  0  0  0  0
   11.1290   -4.8502   19.8052 C   0  0  0  0  0  0  0  0  0  0  0  0
   12.4329   -4.2159   24.4224 C   0  0  0  0  0  0  0  0  0  0  0  0
    3.4740   -9.0387   16.5022 C   0  0  0  0  0  0  0  0  0  0  0  0
    6.8384   -7.9290   17.5282 N   0  0  0  0  0  0  0  0  0  0  0  0
    9.4126   -5.9853   18.4899 C   0  0  0  0  0  0  0  0  0  0  0  0
    4.2064  -10.3242   18.3302 C   0  0  0  0  0  0  0  0  0  0  0  0
    9.6599   -4.1551   16.4796 N   0  0  0  0  0  0  0  0  0  0  0  0
    7.0644   -6.4612   15.7375 N   0  0  0  0  0  0  0  0  0  0  0  0
    5.3549   -9.6322   18.3190 C   0  0  0  0  0  0  0  0  0  0  0  0
   10.3704   -4.9638   18.6510 C   0  0  0  0  0  0  0  0  0  0  0  0
    5.5935   -8.6419   17.4234 C   0  0  0  0  0  0  0  0  0  0  0  0
   13.0726   -4.6648   23.3394 O   0  0  0  0  0  0  0  0  0  0  0  0
    8.5955   -6.0705   17.3996 C   0  0  0  0  0  0  0  0  0  0  0  0
    4.6223   -8.3832   16.5030 C   0  0  0  0  0  0  0  0  0  0  0  0
   12.4690   -5.2624   19.9024 C   0  0  0  0  0  0  0  0  0  0  0  0
    3.2548   -9.9919   17.4189 C   0  0  0  0  0  0  0  0  0  0  0  0
   12.4767   -4.7393   22.1790 C   0  0  0  0  0  0  0  0  0  0  0  0
    7.8593   -5.3772   15.3569 N   0  0  0  0  0  0  0  0  0  0  0  0
    7.4412   -6.9038   16.9283 C   0  0  0  0  0  0  0  0  0  0  0  0
  1 21  4  0
  1 23  4  0
  2  5  1  0
  2 13  4  0
  2 16  4  0
  3  6  4  0
  3  7  4  0
  4 13  4  0
  4 19  4  0
  4 24  4  0
  6 23  4  0
  7 16  1  0
  7 21  4  0
  8 18  1  0
  9 20  4  0
  9 22  4  0
 10 17  1  0
 10 25  1  0
 11 16  4  0
 11 19  4  0
 12 15  4  0
 12 22  4  0
 14 24  4  0
 14 25  4  0
 15 17  4  0
 17 20  4  0
 18 23  1  0
 19 25  4  0
M  END
$$$$

 Created by Python create_sdf_string function

 25 28  0  0  0  0  0  0  0  0999 V2000
   13.1533   -5.2399   21.0682 C   0  0  0  0  0  0  0  0  0  0  0  0
   10.4729   -4.0295   17.6135 C   0  0  0  0  0  0  0  0  0  0  0  0
   10.4789   -4.3641   20.9564 C   0  0  0  0  0  0  0  0  0  0  0  0
    8.7421   -5.1412   16.3650 C   0  0  0  0  0  0  0  0  0  0  0  0
   11.4353   -2.9204   17.8044 C   0  0  0  0  0  0  0  0  0  0  0  0
   11.1529   -4.3028   22.1277 C   0  0  0  0  0  0  0  0  0  0  0  0
   11.1290   -4.8502   19.8052 C   0  0  0  0  0  0  0  0  0  0  0  0
   12.4329   -4.2159   24.4224 C   0  0  0  0  0  0  0  0  0  0  0  0
    3.4740   -9.0387   16.5022 C   0  0  0  0  0  0  0  0  0  0  0  0
    6.8384   -7.9290   17.5282 N   0  0  0  0  0  0  0  0  0  0  0  0
    9.4126   -5.9853   18.4899 C   0  0  0  0  0  0  0  0  0  0  0  0
    4.2064  -10.3242   18.3302 C   0  0  0  0  0  0  0  0  0  0  0  0
    9.6599   -4.1551   16.4796 N   0  0  0  0  0  0  0  0  0  0  0  0
    7.0644   -6.4612   15.7375 N   0  0  0  0  0  0  0  0  0  0  0  0
    5.3549   -9.6322   18.3190 C   0  0  0  0  0  0  0  0  0  0  0  0
   10.3704   -4.9638   18.6510 C   0  0  0  0  0  0  0  0  0  0  0  0
    5.5935   -8.6419   17.4234 C   0  0  0  0  0  0  0  0  0  0  0  0
   13.0726   -4.6648   23.3394 O   0  0  0  0  0  0  0  0  0  0  0  0
    8.5955   -6.0705   17.3996 C   0  0  0  0  0  0  0  0  0  0  0  0
    4.6223   -8.3832   16.5030 C   0  0  0  0  0  0  0  0  0  0  0  0
   12.4690   -5.2624   19.9024 C   0  0  0  0  0  0  0  0  0  0  0  0
    3.2548   -9.9919   17.4189 C   0  0  0  0  0  0  0  0  0  0  0  0
   12.4767   -4.7393   22.1790 C   0  0  0  0  0  0  0  0  0  0  0  0
    7.8593   -5.3772   15.3569 N   0  0  0  0  0  0  0  0  0  0  0  0
    7.4412   -6.9038   16.9283 C   0  0  0  0  0  0  0  0  0  0  0  0
  1 21  4  0
  1 23  4  0
  2  5  1  0
  2 13  4  0
  2 16  4  0
  3  6  4  0
  3  7  4  0
  4 13  4  0
  4 19  4  0
  4 24  4  0
  6 23  4  0
  7 16  1  0
  7 21  4  0
  8 18  1  0
  9 20  4  0
  9 22  4  0
 10 17  1  0
 10 25  1  0
 11 16  4  0
 11 19  4  0
 12 15  4  0
 12 22  4  0
 14 24  4  0
 14 25  4  0
 15 17  4  0
 17 20  4  0
 18 23  1  0
 19 25  4  0
M  END
$$$$

 Created by Python create_sdf_string function

 25 28  0  0  0  0  0  0  0  0999 V2000
   13.1533   -5.2399   21.0682 C   0  0  0  0  0  0  0  0  0  0  0  0
   10.4729   -4.0295   17.6135 C   0  0  0  0  0  0  0  0  0  0  0  0
   10.4789   -4.3641   20.9564 C   0  0  0  0  0  0  0  0  0  0  0  0
    8.7421   -5.1412   16.3650 C   0  0  0  0  0  0  0  0  0  0  0  0
   11.4353   -2.9204   17.8044 C   0  0  0  0  0  0  0  0  0  0  0  0
   11.1529   -4.3028   22.1277 C   0  0  0  0  0  0  0  0  0  0  0  0
   11.1290   -4.8502   19.8052 C   0  0  0  0  0  0  0  0  0  0  0  0
   12.4329   -4.2159   24.4224 C   0  0  0  0  0  0  0  0  0  0  0  0
    3.4740   -9.0387   16.5022 C   0  0  0  0  0  0  0  0  0  0  0  0
    6.8384   -7.9290   17.5282 N   0  0  0  0  0  0  0  0  0  0  0  0
    9.4126   -5.9853   18.4899 C   0  0  0  0  0  0  0  0  0  0  0  0
    4.2064  -10.3242   18.3302 C   0  0  0  0  0  0  0  0  0  0  0  0
    9.6599   -4.1551   16.4796 N   0  0  0  0  0  0  0  0  0  0  0  0
    7.0644   -6.4612   15.7375 N   0  0  0  0  0  0  0  0  0  0  0  0
    5.3549   -9.6322   18.3190 C   0  0  0  0  0  0  0  0  0  0  0  0
   10.3704   -4.9638   18.6510 C   0  0  0  0  0  0  0  0  0  0  0  0
    5.5935   -8.6419   17.4234 C   0  0  0  0  0  0  0  0  0  0  0  0
   13.0726   -4.6648   23.3394 O   0  0  0  0  0  0  0  0  0  0  0  0
    8.5955   -6.0705   17.3996 C   0  0  0  0  0  0  0  0  0  0  0  0
    4.6223   -8.3832   16.5030 C   0  0  0  0  0  0  0  0  0  0  0  0
   12.4690   -5.2624   19.9024 C   0  0  0  0  0  0  0  0  0  0  0  0
    3.2548   -9.9919   17.4189 C   0  0  0  0  0  0  0  0  0  0  0  0
   12.4767   -4.7393   22.1790 C   0  0  0  0  0  0  0  0  0  0  0  0
    7.8593   -5.3772   15.3569 N   0  0  0  0  0  0  0  0  0  0  0  0
    7.4412   -6.9038   16.9283 C   0  0  0  0  0  0  0  0  0  0  0  0
  1 21  4  0
  1 23  4  0
  2  5  1  0
  2 13  4  0
  2 16  4  0
  3  6  4  0
  3  7  4  0
  4 13  4  0
  4 19  4  0
  4 24  4  0
  6 23  4  0
  7 16  1  0
  7 21  4  0
  8 18  1  0
  9 20  4  0
  9 22  4  0
 10 17  1  0
 10 25  1  0
 11 16  4  0
 11 19  4  0
 12 15  4  0
 12 22  4  0
 14 24  4  0
 14 25  4  0
 15 17  4  0
 17 20  4  0
 18 23  1  0
 19 25  4  0
M  END
$$$$

 Created by Python create_sdf_string function

 25 28  0  0  0  0  0  0  0  0999 V2000
   13.1533   -5.2399   21.0682 C   0  0  0  0  0  0  0  0  0  0  0  0
   10.4729   -4.0295   17.6135 C   0  0  0  0  0  0  0  0  0  0  0  0
   10.4789   -4.3641   20.9564 C   0  0  0  0  0  0  0  0  0  0  0  0
    8.7421   -5.1412   16.3650 C   0  0  0  0  0  0  0  0  0  0  0  0
   11.4353   -2.9204   17.8044 C   0  0  0  0  0  0  0  0  0  0  0  0
   11.1529   -4.3028   22.1277 C   0  0  0  0  0  0  0  0  0  0  0  0
   11.1290   -4.8502   19.8052 C   0  0  0  0  0  0  0  0  0  0  0  0
   12.4329   -4.2159   24.4224 C   0  0  0  0  0  0  0  0  0  0  0  0
    3.4740   -9.0387   16.5022 C   0  0  0  0  0  0  0  0  0  0  0  0
    6.8384   -7.9290   17.5282 N   0  0  0  0  0  0  0  0  0  0  0  0
    9.4126   -5.9853   18.4899 C   0  0  0  0  0  0  0  0  0  0  0  0
    4.2064  -10.3242   18.3302 C   0  0  0  0  0  0  0  0  0  0  0  0
    9.6599   -4.1551   16.4796 N   0  0  0  0  0  0  0  0  0  0  0  0
    7.0644   -6.4612   15.7375 N   0  0  0  0  0  0  0  0  0  0  0  0
    5.3549   -9.6322   18.3190 C   0  0  0  0  0  0  0  0  0  0  0  0
   10.3704   -4.9638   18.6510 C   0  0  0  0  0  0  0  0  0  0  0  0
    5.5935   -8.6419   17.4234 C   0  0  0  0  0  0  0  0  0  0  0  0
   13.0726   -4.6648   23.3394 O   0  0  0  0  0  0  0  0  0  0  0  0
    8.5955   -6.0705   17.3996 C   0  0  0  0  0  0  0  0  0  0  0  0
    4.6223   -8.3832   16.5030 C   0  0  0  0  0  0  0  0  0  0  0  0
   12.4690   -5.2624   19.9024 C   0  0  0  0  0  0  0  0  0  0  0  0
    3.2548   -9.9919   17.4189 C   0  0  0  0  0  0  0  0  0  0  0  0
   12.4767   -4.7393   22.1790 C   0  0  0  0  0  0  0  0  0  0  0  0
    7.8593   -5.3772   15.3569 N   0  0  0  0  0  0  0  0  0  0  0  0
    7.4412   -6.9038   16.9283 C   0  0  0  0  0  0  0  0  0  0  0  0
  1 21  4  0
  1 23  4  0
  2  5  1  0
  2 13  4  0
  2 16  4  0
  3  6  4  0
  3  7  4  0
  4 13  4  0
  4 19  4  0
  4 24  4  0
  6 23  4  0
  7 16  1  0
  7 21  4  0
  8 18  1  0
  9 20  4  0
  9 22  4  0
 10 17  1  0
 10 25  1  0
 11 16  4  0
 11 19  4  0
 12 15  4  0
 12 22  4  0
 14 24  4  0
 14 25  4  0
 15 17  4  0
 17 20  4  0
 18 23  1  0
 19 25  4  0
M  END
$$$$

 Created by Python create_sdf_string function

 25 28  0  0  0  0  0  0  0  0999 V2000
   13.1533   -5.2399   21.0682 C   0  0  0  0  0  0  0  0  0  0  0  0
   10.4729   -4.0295   17.6135 C   0  0  0  0  0  0  0  0  0  0  0  0
   10.4789   -4.3641   20.9564 C   0  0  0  0  0  0  0  0  0  0  0  0
    8.7421   -5.1412   16.3650 C   0  0  0  0  0  0  0  0  0  0  0  0
   11.4353   -2.9204   17.8044 C   0  0  0  0  0  0  0  0  0  0  0  0
   11.1529   -4.3028   22.1277 C   0  0  0  0  0  0  0  0  0  0  0  0
   11.1290   -4.8502   19.8052 C   0  0  0  0  0  0  0  0  0  0  0  0
   12.4329   -4.2159   24.4224 C   0  0  0  0  0  0  0  0  0  0  0  0
    3.4740   -9.0387   16.5022 C   0  0  0  0  0  0  0  0  0  0  0  0
    6.8384   -7.9290   17.5282 N   0  0  0  0  0  0  0  0  0  0  0  0
    9.4126   -5.9853   18.4899 C   0  0  0  0  0  0  0  0  0  0  0  0
    4.2064  -10.3242   18.3302 C   0  0  0  0  0  0  0  0  0  0  0  0
    9.6599   -4.1551   16.4796 N   0  0  0  0  0  0  0  0  0  0  0  0
    7.0644   -6.4612   15.7375 N   0  0  0  0  0  0  0  0  0  0  0  0
    5.3549   -9.6322   18.3190 C   0  0  0  0  0  0  0  0  0  0  0  0
   10.3704   -4.9638   18.6510 C   0  0  0  0  0  0  0  0  0  0  0  0
    5.5935   -8.6419   17.4234 C   0  0  0  0  0  0  0  0  0  0  0  0
   13.0726   -4.6648   23.3394 O   0  0  0  0  0  0  0  0  0  0  0  0
    8.5955   -6.0705   17.3996 C   0  0  0  0  0  0  0  0  0  0  0  0
    4.6223   -8.3832   16.5030 C   0  0  0  0  0  0  0  0  0  0  0  0
   12.4690   -5.2624   19.9024 C   0  0  0  0  0  0  0  0  0  0  0  0
    3.2548   -9.9919   17.4189 C   0  0  0  0  0  0  0  0  0  0  0  0
   12.4767   -4.7393   22.1790 C   0  0  0  0  0  0  0  0  0  0  0  0
    7.8593   -5.3772   15.3569 N   0  0  0  0  0  0  0  0  0  0  0  0
    7.4412   -6.9038   16.9283 C   0  0  0  0  0  0  0  0  0  0  0  0
  1 21  4  0
  1 23  4  0
  2  5  1  0
  2 13  4  0
  2 16  4  0
  3  6  4  0
  3  7  4  0
  4 13  4  0
  4 19  4  0
  4 24  4  0
  6 23  4  0
  7 16  1  0
  7 21  4  0
  8 18  1  0
  9 20  4  0
  9 22  4  0
 10 17  1  0
 10 25  1  0
 11 16  4  0
 11 19  4  0
 12 15  4  0
 12 22  4  0
 14 24  4  0
 14 25  4  0
 15 17  4  0
 17 20  4  0
 18 23  1  0
 19 25  4  0
M  END
$$$$

 Created by Python create_sdf_string function

 25 28  0  0  0  0  0  0  0  0999 V2000
   13.1533   -5.2399   21.0682 C   0  0  0  0  0  0  0  0  0  0  0  0
   10.4729   -4.0295   17.6135 C   0  0  0  0  0  0  0  0  0  0  0  0
   10.4789   -4.3641   20.9564 C   0  0  0  0  0  0  0  0  0  0  0  0
    8.7421   -5.1412   16.3650 C   0  0  0  0  0  0  0  0  0  0  0  0
   11.4353   -2.9204   17.8044 C   0  0  0  0  0  0  0  0  0  0  0  0
   11.1529   -4.3028   22.1277 C   0  0  0  0  0  0  0  0  0  0  0  0
   11.1290   -4.8502   19.8052 C   0  0  0  0  0  0  0  0  0  0  0  0
   12.4329   -4.2159   24.4224 C   0  0  0  0  0  0  0  0  0  0  0  0
    3.4740   -9.0387   16.5022 C   0  0  0  0  0  0  0  0  0  0  0  0
    6.8384   -7.9290   17.5282 N   0  0  0  0  0  0  0  0  0  0  0  0
    9.4126   -5.9853   18.4899 C   0  0  0  0  0  0  0  0  0  0  0  0
    4.2064  -10.3242   18.3302 C   0  0  0  0  0  0  0  0  0  0  0  0
    9.6599   -4.1551   16.4796 N   0  0  0  0  0  0  0  0  0  0  0  0
    7.0644   -6.4612   15.7375 N   0  0  0  0  0  0  0  0  0  0  0  0
    5.3549   -9.6322   18.3190 C   0  0  0  0  0  0  0  0  0  0  0  0
   10.3704   -4.9638   18.6510 C   0  0  0  0  0  0  0  0  0  0  0  0
    5.5935   -8.6419   17.4234 C   0  0  0  0  0  0  0  0  0  0  0  0
   13.0726   -4.6648   23.3394 O   0  0  0  0  0  0  0  0  0  0  0  0
    8.5955   -6.0705   17.3996 C   0  0  0  0  0  0  0  0  0  0  0  0
    4.6223   -8.3832   16.5030 C   0  0  0  0  0  0  0  0  0  0  0  0
   12.4690   -5.2624   19.9024 C   0  0  0  0  0  0  0  0  0  0  0  0
    3.2548   -9.9919   17.4189 C   0  0  0  0  0  0  0  0  0  0  0  0
   12.4767   -4.7393   22.1790 C   0  0  0  0  0  0  0  0  0  0  0  0
    7.8593   -5.3772   15.3569 N   0  0  0  0  0  0  0  0  0  0  0  0
    7.4412   -6.9038   16.9283 C   0  0  0  0  0  0  0  0  0  0  0  0
  1 21  4  0
  1 23  4  0
  2  5  1  0
  2 13  4  0
  2 16  4  0
  3  6  4  0
  3  7  4  0
  4 13  4  0
  4 19  4  0
  4 24  4  0
  6 23  4  0
  7 16  1  0
  7 21  4  0
  8 18  1  0
  9 20  4  0
  9 22  4  0
 10 17  1  0
 10 25  1  0
 11 16  4  0
 11 19  4  0
 12 15  4  0
 12 22  4  0
 14 24  4  0
 14 25  4  0
 15 17  4  0
 17 20  4  0
 18 23  1  0
 19 25  4  0
M  END
$$$$

 Created by Python create_sdf_string function

 25 28  0  0  0  0  0  0  0  0999 V2000
   13.1533   -5.2399   21.0682 C   0  0  0  0  0  0  0  0  0  0  0  0
   10.4729   -4.0295   17.6135 C   0  0  0  0  0  0  0  0  0  0  0  0
   10.4789   -4.3641   20.9564 C   0  0  0  0  0  0  0  0  0  0  0  0
    8.7421   -5.1412   16.3650 C   0  0  0  0  0  0  0  0  0  0  0  0
   11.4353   -2.9204   17.8044 C   0  0  0  0  0  0  0  0  0  0  0  0
   11.1529   -4.3028   22.1277 C   0  0  0  0  0  0  0  0  0  0  0  0
   11.1290   -4.8502   19.8052 C   0  0  0  0  0  0  0  0  0  0  0  0
   12.4329   -4.2159   24.4224 C   0  0  0  0  0  0  0  0  0  0  0  0
    3.4740   -9.0387   16.5022 C   0  0  0  0  0  0  0  0  0  0  0  0
    6.8384   -7.9290   17.5282 N   0  0  0  0  0  0  0  0  0  0  0  0
    9.4126   -5.9853   18.4899 C   0  0  0  0  0  0  0  0  0  0  0  0
    4.2064  -10.3242   18.3302 C   0  0  0  0  0  0  0  0  0  0  0  0
    9.6599   -4.1551   16.4796 N   0  0  0  0  0  0  0  0  0  0  0  0
    7.0644   -6.4612   15.7375 N   0  0  0  0  0  0  0  0  0  0  0  0
    5.3549   -9.6322   18.3190 C   0  0  0  0  0  0  0  0  0  0  0  0
   10.3704   -4.9638   18.6510 C   0  0  0  0  0  0  0  0  0  0  0  0
    5.5935   -8.6419   17.4234 C   0  0  0  0  0  0  0  0  0  0  0  0
   13.0726   -4.6648   23.3394 O   0  0  0  0  0  0  0  0  0  0  0  0
    8.5955   -6.0705   17.3996 C   0  0  0  0  0  0  0  0  0  0  0  0
    4.6223   -8.3832   16.5030 C   0  0  0  0  0  0  0  0  0  0  0  0
   12.4690   -5.2624   19.9024 C   0  0  0  0  0  0  0  0  0  0  0  0
    3.2548   -9.9919   17.4189 C   0  0  0  0  0  0  0  0  0  0  0  0
   12.4767   -4.7393   22.1790 C   0  0  0  0  0  0  0  0  0  0  0  0
    7.8593   -5.3772   15.3569 N   0  0  0  0  0  0  0  0  0  0  0  0
    7.4412   -6.9038   16.9283 C   0  0  0  0  0  0  0  0  0  0  0  0
  1 21  4  0
  1 23  4  0
  2  5  1  0
  2 13  4  0
  2 16  4  0
  3  6  4  0
  3  7  4  0
  4 13  4  0
  4 19  4  0
  4 24  4  0
  6 23  4  0
  7 16  1  0
  7 21  4  0
  8 18  1  0
  9 20  4  0
  9 22  4  0
 10 17  1  0
 10 25  1  0
 11 16  4  0
 11 19  4  0
 12 15  4  0
 12 22  4  0
 14 24  4  0
 14 25  4  0
 15 17  4  0
 17 20  4  0
 18 23  1  0
 19 25  4  0
M  END
$$$$

 Created by Python create_sdf_string function

 25 28  0  0  0  0  0  0  0  0999 V2000
   13.1533   -5.2399   21.0682 C   0  0  0  0  0  0  0  0  0  0  0  0
   10.4729   -4.0295   17.6135 C   0  0  0  0  0  0  0  0  0  0  0  0
   10.4789   -4.3641   20.9564 C   0  0  0  0  0  0  0  0  0  0  0  0
    8.7421   -5.1412   16.3650 C   0  0  0  0  0  0  0  0  0  0  0  0
   11.4353   -2.9204   17.8044 C   0  0  0  0  0  0  0  0  0  0  0  0
   11.1529   -4.3028   22.1277 C   0  0  0  0  0  0  0  0  0  0  0  0
   11.1290   -4.8502   19.8052 C   0  0  0  0  0  0  0  0  0  0  0  0
   12.4329   -4.2159   24.4224 C   0  0  0  0  0  0  0  0  0  0  0  0
    3.4740   -9.0387   16.5022 C   0  0  0  0  0  0  0  0  0  0  0  0
    6.8384   -7.9290   17.5282 N   0  0  0  0  0  0  0  0  0  0  0  0
    9.4126   -5.9853   18.4899 C   0  0  0  0  0  0  0  0  0  0  0  0
    4.2064  -10.3242   18.3302 C   0  0  0  0  0  0  0  0  0  0  0  0
    9.6599   -4.1551   16.4796 N   0  0  0  0  0  0  0  0  0  0  0  0
    7.0644   -6.4612   15.7375 N   0  0  0  0  0  0  0  0  0  0  0  0
    5.3549   -9.6322   18.3190 C   0  0  0  0  0  0  0  0  0  0  0  0
   10.3704   -4.9638   18.6510 C   0  0  0  0  0  0  0  0  0  0  0  0
    5.5935   -8.6419   17.4234 C   0  0  0  0  0  0  0  0  0  0  0  0
   13.0726   -4.6648   23.3394 O   0  0  0  0  0  0  0  0  0  0  0  0
    8.5955   -6.0705   17.3996 C   0  0  0  0  0  0  0  0  0  0  0  0
    4.6223   -8.3832   16.5030 C   0  0  0  0  0  0  0  0  0  0  0  0
   12.4690   -5.2624   19.9024 C   0  0  0  0  0  0  0  0  0  0  0  0
    3.2548   -9.9919   17.4189 C   0  0  0  0  0  0  0  0  0  0  0  0
   12.4767   -4.7393   22.1790 C   0  0  0  0  0  0  0  0  0  0  0  0
    7.8593   -5.3772   15.3569 N   0  0  0  0  0  0  0  0  0  0  0  0
    7.4412   -6.9038   16.9283 C   0  0  0  0  0  0  0  0  0  0  0  0
  1 21  4  0
  1 23  4  0
  2  5  1  0
  2 13  4  0
  2 16  4  0
  3  6  4  0
  3  7  4  0
  4 13  4  0
  4 19  4  0
  4 24  4  0
  6 23  4  0
  7 16  1  0
  7 21  4  0
  8 18  1  0
  9 20  4  0
  9 22  4  0
 10 17  1  0
 10 25  1  0
 11 16  4  0
 11 19  4  0
 12 15  4  0
 12 22  4  0
 14 24  4  0
 14 25  4  0
 15 17  4  0
 17 20  4  0
 18 23  1  0
 19 25  4  0
M  END
$$$$

 Created by Python create_sdf_string function

 25 28  0  0  0  0  0  0  0  0999 V2000
   13.1533   -5.2399   21.0682 C   0  0  0  0  0  0  0  0  0  0  0  0
   10.4729   -4.0295   17.6135 C   0  0  0  0  0  0  0  0  0  0  0  0
   10.4789   -4.3641   20.9564 C   0  0  0  0  0  0  0  0  0  0  0  0
    8.7421   -5.1412   16.3650 C   0  0  0  0  0  0  0  0  0  0  0  0
   11.4353   -2.9204   17.8044 C   0  0  0  0  0  0  0  0  0  0  0  0
   11.1529   -4.3028   22.1277 C   0  0  0  0  0  0  0  0  0  0  0  0
   11.1290   -4.8502   19.8052 C   0  0  0  0  0  0  0  0  0  0  0  0
   12.4329   -4.2159   24.4224 C   0  0  0  0  0  0  0  0  0  0  0  0
    3.4740   -9.0387   16.5022 C   0  0  0  0  0  0  0  0  0  0  0  0
    6.8384   -7.9290   17.5282 N   0  0  0  0  0  0  0  0  0  0  0  0
    9.4126   -5.9853   18.4899 C   0  0  0  0  0  0  0  0  0  0  0  0
    4.2064  -10.3242   18.3302 C   0  0  0  0  0  0  0  0  0  0  0  0
    9.6599   -4.1551   16.4796 N   0  0  0  0  0  0  0  0  0  0  0  0
    7.0644   -6.4612   15.7375 N   0  0  0  0  0  0  0  0  0  0  0  0
    5.3549   -9.6322   18.3190 C   0  0  0  0  0  0  0  0  0  0  0  0
   10.3704   -4.9638   18.6510 C   0  0  0  0  0  0  0  0  0  0  0  0
    5.5935   -8.6419   17.4234 C   0  0  0  0  0  0  0  0  0  0  0  0
   13.0726   -4.6648   23.3394 O   0  0  0  0  0  0  0  0  0  0  0  0
    8.5955   -6.0705   17.3996 C   0  0  0  0  0  0  0  0  0  0  0  0
    4.6223   -8.3832   16.5030 C   0  0  0  0  0  0  0  0  0  0  0  0
   12.4690   -5.2624   19.9024 C   0  0  0  0  0  0  0  0  0  0  0  0
    3.2548   -9.9919   17.4189 C   0  0  0  0  0  0  0  0  0  0  0  0
   12.4767   -4.7393   22.1790 C   0  0  0  0  0  0  0  0  0  0  0  0
    7.8593   -5.3772   15.3569 N   0  0  0  0  0  0  0  0  0  0  0  0
    7.4412   -6.9038   16.9283 C   0  0  0  0  0  0  0  0  0  0  0  0
  1 21  4  0
  1 23  4  0
  2  5  1  0
  2 13  4  0
  2 16  4  0
  3  6  4  0
  3  7  4  0
  4 13  4  0
  4 19  4  0
  4 24  4  0
  6 23  4  0
  7 16  1  0
  7 21  4  0
  8 18  1  0
  9 20  4  0
  9 22  4  0
 10 17  1  0
 10 25  1  0
 11 16  4  0
 11 19  4  0
 12 15  4  0
 12 22  4  0
 14 24  4  0
 14 25  4  0
 15 17  4  0
 17 20  4  0
 18 23  1  0
 19 25  4  0
M  END
$$$$

 Created by Python create_sdf_string function

 25 28  0  0  0  0  0  0  0  0999 V2000
   13.1533   -5.2399   21.0682 C   0  0  0  0  0  0  0  0  0  0  0  0
   10.4729   -4.0295   17.6135 C   0  0  0  0  0  0  0  0  0  0  0  0
   10.4789   -4.3641   20.9564 C   0  0  0  0  0  0  0  0  0  0  0  0
    8.7421   -5.1412   16.3650 C   0  0  0  0  0  0  0  0  0  0  0  0
   11.4353   -2.9204   17.8044 C   0  0  0  0  0  0  0  0  0  0  0  0
   11.1529   -4.3028   22.1277 C   0  0  0  0  0  0  0  0  0  0  0  0
   11.1290   -4.8502   19.8052 C   0  0  0  0  0  0  0  0  0  0  0  0
   12.4329   -4.2159   24.4224 C   0  0  0  0  0  0  0  0  0  0  0  0
    3.4740   -9.0387   16.5022 C   0  0  0  0  0  0  0  0  0  0  0  0
    6.8384   -7.9290   17.5282 N   0  0  0  0  0  0  0  0  0  0  0  0
    9.4126   -5.9853   18.4899 C   0  0  0  0  0  0  0  0  0  0  0  0
    4.2064  -10.3242   18.3302 C   0  0  0  0  0  0  0  0  0  0  0  0
    9.6599   -4.1551   16.4796 N   0  0  0  0  0  0  0  0  0  0  0  0
    7.0644   -6.4612   15.7375 N   0  0  0  0  0  0  0  0  0  0  0  0
    5.3549   -9.6322   18.3190 C   0  0  0  0  0  0  0  0  0  0  0  0
   10.3704   -4.9638   18.6510 C   0  0  0  0  0  0  0  0  0  0  0  0
    5.5935   -8.6419   17.4234 C   0  0  0  0  0  0  0  0  0  0  0  0
   13.0726   -4.6648   23.3394 O   0  0  0  0  0  0  0  0  0  0  0  0
    8.5955   -6.0705   17.3996 C   0  0  0  0  0  0  0  0  0  0  0  0
    4.6223   -8.3832   16.5030 C   0  0  0  0  0  0  0  0  0  0  0  0
   12.4690   -5.2624   19.9024 C   0  0  0  0  0  0  0  0  0  0  0  0
    3.2548   -9.9919   17.4189 C   0  0  0  0  0  0  0  0  0  0  0  0
   12.4767   -4.7393   22.1790 C   0  0  0  0  0  0  0  0  0  0  0  0
    7.8593   -5.3772   15.3569 N   0  0  0  0  0  0  0  0  0  0  0  0
    7.4412   -6.9038   16.9283 C   0  0  0  0  0  0  0  0  0  0  0  0
  1 21  4  0
  1 23  4  0
  2  5  1  0
  2 13  4  0
  2 16  4  0
  3  6  4  0
  3  7  4  0
  4 13  4  0
  4 19  4  0
  4 24  4  0
  6 23  4  0
  7 16  1  0
  7 21  4  0
  8 18  1  0
  9 20  4  0
  9 22  4  0
 10 17  1  0
 10 25  1  0
 11 16  4  0
 11 19  4  0
 12 15  4  0
 12 22  4  0
 14 24  4  0
 14 25  4  0
 15 17  4  0
 17 20  4  0
 18 23  1  0
 19 25  4  0
M  END
$$$$

 Created by Python create_sdf_string function

 25 28  0  0  0  0  0  0  0  0999 V2000
   13.1533   -5.2399   21.0682 C   0  0  0  0  0  0  0  0  0  0  0  0
   10.4729   -4.0295   17.6135 C   0  0  0  0  0  0  0  0  0  0  0  0
   10.4789   -4.3641   20.9564 C   0  0  0  0  0  0  0  0  0  0  0  0
    8.7421   -5.1412   16.3650 C   0  0  0  0  0  0  0  0  0  0  0  0
   11.4353   -2.9204   17.8044 C   0  0  0  0  0  0  0  0  0  0  0  0
   11.1529   -4.3028   22.1277 C   0  0  0  0  0  0  0  0  0  0  0  0
   11.1290   -4.8502   19.8052 C   0  0  0  0  0  0  0  0  0  0  0  0
   12.4329   -4.2159   24.4224 C   0  0  0  0  0  0  0  0  0  0  0  0
    3.4740   -9.0387   16.5022 C   0  0  0  0  0  0  0  0  0  0  0  0
    6.8384   -7.9290   17.5282 N   0  0  0  0  0  0  0  0  0  0  0  0
    9.4126   -5.9853   18.4899 C   0  0  0  0  0  0  0  0  0  0  0  0
    4.2064  -10.3242   18.3302 C   0  0  0  0  0  0  0  0  0  0  0  0
    9.6599   -4.1551   16.4796 N   0  0  0  0  0  0  0  0  0  0  0  0
    7.0644   -6.4612   15.7375 N   0  0  0  0  0  0  0  0  0  0  0  0
    5.3549   -9.6322   18.3190 C   0  0  0  0  0  0  0  0  0  0  0  0
   10.3704   -4.9638   18.6510 C   0  0  0  0  0  0  0  0  0  0  0  0
    5.5935   -8.6419   17.4234 C   0  0  0  0  0  0  0  0  0  0  0  0
   13.0726   -4.6648   23.3394 O   0  0  0  0  0  0  0  0  0  0  0  0
    8.5955   -6.0705   17.3996 C   0  0  0  0  0  0  0  0  0  0  0  0
    4.6223   -8.3832   16.5030 C   0  0  0  0  0  0  0  0  0  0  0  0
   12.4690   -5.2624   19.9024 C   0  0  0  0  0  0  0  0  0  0  0  0
    3.2548   -9.9919   17.4189 C   0  0  0  0  0  0  0  0  0  0  0  0
   12.4767   -4.7393   22.1790 C   0  0  0  0  0  0  0  0  0  0  0  0
    7.8593   -5.3772   15.3569 N   0  0  0  0  0  0  0  0  0  0  0  0
    7.4412   -6.9038   16.9283 C   0  0  0  0  0  0  0  0  0  0  0  0
  1 21  4  0
  1 23  4  0
  2  5  1  0
  2 13  4  0
  2 16  4  0
  3  6  4  0
  3  7  4  0
  4 13  4  0
  4 19  4  0
  4 24  4  0
  6 23  4  0
  7 16  1  0
  7 21  4  0
  8 18  1  0
  9 20  4  0
  9 22  4  0
 10 17  1  0
 10 25  1  0
 11 16  4  0
 11 19  4  0
 12 15  4  0
 12 22  4  0
 14 24  4  0
 14 25  4  0
 15 17  4  0
 17 20  4  0
 18 23  1  0
 19 25  4  0
M  END
$$$$

 Created by Python create_sdf_string function

 25 28  0  0  0  0  0  0  0  0999 V2000
   13.1533   -5.2399   21.0682 C   0  0  0  0  0  0  0  0  0  0  0  0
   10.4729   -4.0295   17.6135 C   0  0  0  0  0  0  0  0  0  0  0  0
   10.4789   -4.3641   20.9564 C   0  0  0  0  0  0  0  0  0  0  0  0
    8.7421   -5.1412   16.3650 C   0  0  0  0  0  0  0  0  0  0  0  0
   11.4353   -2.9204   17.8044 C   0  0  0  0  0  0  0  0  0  0  0  0
   11.1529   -4.3028   22.1277 C   0  0  0  0  0  0  0  0  0  0  0  0
   11.1290   -4.8502   19.8052 C   0  0  0  0  0  0  0  0  0  0  0  0
   12.4329   -4.2159   24.4224 C   0  0  0  0  0  0  0  0  0  0  0  0
    3.4740   -9.0387   16.5022 C   0  0  0  0  0  0  0  0  0  0  0  0
    6.8384   -7.9290   17.5282 N   0  0  0  0  0  0  0  0  0  0  0  0
    9.4126   -5.9853   18.4899 C   0  0  0  0  0  0  0  0  0  0  0  0
    4.2064  -10.3242   18.3302 C   0  0  0  0  0  0  0  0  0  0  0  0
    9.6599   -4.1551   16.4796 N   0  0  0  0  0  0  0  0  0  0  0  0
    7.0644   -6.4612   15.7375 N   0  0  0  0  0  0  0  0  0  0  0  0
    5.3549   -9.6322   18.3190 C   0  0  0  0  0  0  0  0  0  0  0  0
   10.3704   -4.9638   18.6510 C   0  0  0  0  0  0  0  0  0  0  0  0
    5.5935   -8.6419   17.4234 C   0  0  0  0  0  0  0  0  0  0  0  0
   13.0726   -4.6648   23.3394 O   0  0  0  0  0  0  0  0  0  0  0  0
    8.5955   -6.0705   17.3996 C   0  0  0  0  0  0  0  0  0  0  0  0
    4.6223   -8.3832   16.5030 C   0  0  0  0  0  0  0  0  0  0  0  0
   12.4690   -5.2624   19.9024 C   0  0  0  0  0  0  0  0  0  0  0  0
    3.2548   -9.9919   17.4189 C   0  0  0  0  0  0  0  0  0  0  0  0
   12.4767   -4.7393   22.1790 C   0  0  0  0  0  0  0  0  0  0  0  0
    7.8593   -5.3772   15.3569 N   0  0  0  0  0  0  0  0  0  0  0  0
    7.4412   -6.9038   16.9283 C   0  0  0  0  0  0  0  0  0  0  0  0
  1 21  4  0
  1 23  4  0
  2  5  1  0
  2 13  4  0
  2 16  4  0
  3  6  4  0
  3  7  4  0
  4 13  4  0
  4 19  4  0
  4 24  4  0
  6 23  4  0
  7 16  1  0
  7 21  4  0
  8 18  1  0
  9 20  4  0
  9 22  4  0
 10 17  1  0
 10 25  1  0
 11 16  4  0
 11 19  4  0
 12 15  4  0
 12 22  4  0
 14 24  4  0
 14 25  4  0
 15 17  4  0
 17 20  4  0
 18 23  1  0
 19 25  4  0
M  END
$$$$

 Created by Python create_sdf_string function

 25 28  0  0  0  0  0  0  0  0999 V2000
   13.1533   -5.2399   21.0682 C   0  0  0  0  0  0  0  0  0  0  0  0
   10.4729   -4.0295   17.6135 C   0  0  0  0  0  0  0  0  0  0  0  0
   10.4789   -4.3641   20.9564 C   0  0  0  0  0  0  0  0  0  0  0  0
    8.7421   -5.1412   16.3650 C   0  0  0  0  0  0  0  0  0  0  0  0
   11.4353   -2.9204   17.8044 C   0  0  0  0  0  0  0  0  0  0  0  0
   11.1529   -4.3028   22.1277 C   0  0  0  0  0  0  0  0  0  0  0  0
   11.1290   -4.8502   19.8052 C   0  0  0  0  0  0  0  0  0  0  0  0
   12.4329   -4.2159   24.4224 C   0  0  0  0  0  0  0  0  0  0  0  0
    3.4740   -9.0387   16.5022 C   0  0  0  0  0  0  0  0  0  0  0  0
    6.8384   -7.9290   17.5282 N   0  0  0  0  0  0  0  0  0  0  0  0
    9.4126   -5.9853   18.4899 C   0  0  0  0  0  0  0  0  0  0  0  0
    4.2064  -10.3242   18.3302 C   0  0  0  0  0  0  0  0  0  0  0  0
    9.6599   -4.1551   16.4796 N   0  0  0  0  0  0  0  0  0  0  0  0
    7.0644   -6.4612   15.7375 N   0  0  0  0  0  0  0  0  0  0  0  0
    5.3549   -9.6322   18.3190 C   0  0  0  0  0  0  0  0  0  0  0  0
   10.3704   -4.9638   18.6510 C   0  0  0  0  0  0  0  0  0  0  0  0
    5.5935   -8.6419   17.4234 C   0  0  0  0  0  0  0  0  0  0  0  0
   13.0726   -4.6648   23.3394 O   0  0  0  0  0  0  0  0  0  0  0  0
    8.5955   -6.0705   17.3996 C   0  0  0  0  0  0  0  0  0  0  0  0
    4.6223   -8.3832   16.5030 C   0  0  0  0  0  0  0  0  0  0  0  0
   12.4690   -5.2624   19.9024 C   0  0  0  0  0  0  0  0  0  0  0  0
    3.2548   -9.9919   17.4189 C   0  0  0  0  0  0  0  0  0  0  0  0
   12.4767   -4.7393   22.1790 C   0  0  0  0  0  0  0  0  0  0  0  0
    7.8593   -5.3772   15.3569 N   0  0  0  0  0  0  0  0  0  0  0  0
    7.4412   -6.9038   16.9283 C   0  0  0  0  0  0  0  0  0  0  0  0
  1 21  4  0
  1 23  4  0
  2  5  1  0
  2 13  4  0
  2 16  4  0
  3  6  4  0
  3  7  4  0
  4 13  4  0
  4 19  4  0
  4 24  4  0
  6 23  4  0
  7 16  1  0
  7 21  4  0
  8 18  1  0
  9 20  4  0
  9 22  4  0
 10 17  1  0
 10 25  1  0
 11 16  4  0
 11 19  4  0
 12 15  4  0
 12 22  4  0
 14 24  4  0
 14 25  4  0
 15 17  4  0
 17 20  4  0
 18 23  1  0
 19 25  4  0
M  END
$$$$

 Created by Python create_sdf_string function

 25 28  0  0  0  0  0  0  0  0999 V2000
   13.1533   -5.2399   21.0682 C   0  0  0  0  0  0  0  0  0  0  0  0
   10.4729   -4.0295   17.6135 C   0  0  0  0  0  0  0  0  0  0  0  0
   10.4789   -4.3641   20.9564 C   0  0  0  0  0  0  0  0  0  0  0  0
    8.7421   -5.1412   16.3650 C   0  0  0  0  0  0  0  0  0  0  0  0
   11.4353   -2.9204   17.8044 C   0  0  0  0  0  0  0  0  0  0  0  0
   11.1529   -4.3028   22.1277 C   0  0  0  0  0  0  0  0  0  0  0  0
   11.1290   -4.8502   19.8052 C   0  0  0  0  0  0  0  0  0  0  0  0
   12.4329   -4.2159   24.4224 C   0  0  0  0  0  0  0  0  0  0  0  0
    3.4740   -9.0387   16.5022 C   0  0  0  0  0  0  0  0  0  0  0  0
    6.8384   -7.9290   17.5282 N   0  0  0  0  0  0  0  0  0  0  0  0
    9.4126   -5.9853   18.4899 C   0  0  0  0  0  0  0  0  0  0  0  0
    4.2064  -10.3242   18.3302 C   0  0  0  0  0  0  0  0  0  0  0  0
    9.6599   -4.1551   16.4796 N   0  0  0  0  0  0  0  0  0  0  0  0
    7.0644   -6.4612   15.7375 N   0  0  0  0  0  0  0  0  0  0  0  0
    5.3549   -9.6322   18.3190 C   0  0  0  0  0  0  0  0  0  0  0  0
   10.3704   -4.9638   18.6510 C   0  0  0  0  0  0  0  0  0  0  0  0
    5.5935   -8.6419   17.4234 C   0  0  0  0  0  0  0  0  0  0  0  0
   13.0726   -4.6648   23.3394 O   0  0  0  0  0  0  0  0  0  0  0  0
    8.5955   -6.0705   17.3996 C   0  0  0  0  0  0  0  0  0  0  0  0
    4.6223   -8.3832   16.5030 C   0  0  0  0  0  0  0  0  0  0  0  0
   12.4690   -5.2624   19.9024 C   0  0  0  0  0  0  0  0  0  0  0  0
    3.2548   -9.9919   17.4189 C   0  0  0  0  0  0  0  0  0  0  0  0
   12.4767   -4.7393   22.1790 C   0  0  0  0  0  0  0  0  0  0  0  0
    7.8593   -5.3772   15.3569 N   0  0  0  0  0  0  0  0  0  0  0  0
    7.4412   -6.9038   16.9283 C   0  0  0  0  0  0  0  0  0  0  0  0
  1 21  4  0
  1 23  4  0
  2  5  1  0
  2 13  4  0
  2 16  4  0
  3  6  4  0
  3  7  4  0
  4 13  4  0
  4 19  4  0
  4 24  4  0
  6 23  4  0
  7 16  1  0
  7 21  4  0
  8 18  1  0
  9 20  4  0
  9 22  4  0
 10 17  1  0
 10 25  1  0
 11 16  4  0
 11 19  4  0
 12 15  4  0
 12 22  4  0
 14 24  4  0
 14 25  4  0
 15 17  4  0
 17 20  4  0
 18 23  1  0
 19 25  4  0
M  END
$$$$

 Created by Python create_sdf_string function

 25 28  0  0  0  0  0  0  0  0999 V2000
   13.1533   -5.2399   21.0682 C   0  0  0  0  0  0  0  0  0  0  0  0
   10.4729   -4.0295   17.6135 C   0  0  0  0  0  0  0  0  0  0  0  0
   10.4789   -4.3641   20.9564 C   0  0  0  0  0  0  0  0  0  0  0  0
    8.7421   -5.1412   16.3650 C   0  0  0  0  0  0  0  0  0  0  0  0
   11.4353   -2.9204   17.8044 C   0  0  0  0  0  0  0  0  0  0  0  0
   11.1529   -4.3028   22.1277 C   0  0  0  0  0  0  0  0  0  0  0  0
   11.1290   -4.8502   19.8052 C   0  0  0  0  0  0  0  0  0  0  0  0
   12.4329   -4.2159   24.4224 C   0  0  0  0  0  0  0  0  0  0  0  0
    3.4740   -9.0387   16.5022 C   0  0  0  0  0  0  0  0  0  0  0  0
    6.8384   -7.9290   17.5282 N   0  0  0  0  0  0  0  0  0  0  0  0
    9.4126   -5.9853   18.4899 C   0  0  0  0  0  0  0  0  0  0  0  0
    4.2064  -10.3242   18.3302 C   0  0  0  0  0  0  0  0  0  0  0  0
    9.6599   -4.1551   16.4796 N   0  0  0  0  0  0  0  0  0  0  0  0
    7.0644   -6.4612   15.7375 N   0  0  0  0  0  0  0  0  0  0  0  0
    5.3549   -9.6322   18.3190 C   0  0  0  0  0  0  0  0  0  0  0  0
   10.3704   -4.9638   18.6510 C   0  0  0  0  0  0  0  0  0  0  0  0
    5.5935   -8.6419   17.4234 C   0  0  0  0  0  0  0  0  0  0  0  0
   13.0726   -4.6648   23.3394 O   0  0  0  0  0  0  0  0  0  0  0  0
    8.5955   -6.0705   17.3996 C   0  0  0  0  0  0  0  0  0  0  0  0
    4.6223   -8.3832   16.5030 C   0  0  0  0  0  0  0  0  0  0  0  0
   12.4690   -5.2624   19.9024 C   0  0  0  0  0  0  0  0  0  0  0  0
    3.2548   -9.9919   17.4189 C   0  0  0  0  0  0  0  0  0  0  0  0
   12.4767   -4.7393   22.1790 C   0  0  0  0  0  0  0  0  0  0  0  0
    7.8593   -5.3772   15.3569 N   0  0  0  0  0  0  0  0  0  0  0  0
    7.4412   -6.9038   16.9283 C   0  0  0  0  0  0  0  0  0  0  0  0
  1 21  4  0
  1 23  4  0
  2  5  1  0
  2 13  4  0
  2 16  4  0
  3  6  4  0
  3  7  4  0
  4 13  4  0
  4 19  4  0
  4 24  4  0
  6 23  4  0
  7 16  1  0
  7 21  4  0
  8 18  1  0
  9 20  4  0
  9 22  4  0
 10 17  1  0
 10 25  1  0
 11 16  4  0
 11 19  4  0
 12 15  4  0
 12 22  4  0
 14 24  4  0
 14 25  4  0
 15 17  4  0
 17 20  4  0
 18 23  1  0
 19 25  4  0
M  END
$$$$

 Created by Python create_sdf_string function

 25 28  0  0  0  0  0  0  0  0999 V2000
   13.1533   -5.2399   21.0682 C   0  0  0  0  0  0  0  0  0  0  0  0
   10.4729   -4.0295   17.6135 C   0  0  0  0  0  0  0  0  0  0  0  0
   10.4789   -4.3641   20.9564 C   0  0  0  0  0  0  0  0  0  0  0  0
    8.7421   -5.1412   16.3650 C   0  0  0  0  0  0  0  0  0  0  0  0
   11.4353   -2.9204   17.8044 C   0  0  0  0  0  0  0  0  0  0  0  0
   11.1529   -4.3028   22.1277 C   0  0  0  0  0  0  0  0  0  0  0  0
   11.1290   -4.8502   19.8052 C   0  0  0  0  0  0  0  0  0  0  0  0
   12.4329   -4.2159   24.4224 C   0  0  0  0  0  0  0  0  0  0  0  0
    3.4740   -9.0387   16.5022 C   0  0  0  0  0  0  0  0  0  0  0  0
    6.8384   -7.9290   17.5282 N   0  0  0  0  0  0  0  0  0  0  0  0
    9.4126   -5.9853   18.4899 C   0  0  0  0  0  0  0  0  0  0  0  0
    4.2064  -10.3242   18.3302 C   0  0  0  0  0  0  0  0  0  0  0  0
    9.6599   -4.1551   16.4796 N   0  0  0  0  0  0  0  0  0  0  0  0
    7.0644   -6.4612   15.7375 N   0  0  0  0  0  0  0  0  0  0  0  0
    5.3549   -9.6322   18.3190 C   0  0  0  0  0  0  0  0  0  0  0  0
   10.3704   -4.9638   18.6510 C   0  0  0  0  0  0  0  0  0  0  0  0
    5.5935   -8.6419   17.4234 C   0  0  0  0  0  0  0  0  0  0  0  0
   13.0726   -4.6648   23.3394 O   0  0  0  0  0  0  0  0  0  0  0  0
    8.5955   -6.0705   17.3996 C   0  0  0  0  0  0  0  0  0  0  0  0
    4.6223   -8.3832   16.5030 C   0  0  0  0  0  0  0  0  0  0  0  0
   12.4690   -5.2624   19.9024 C   0  0  0  0  0  0  0  0  0  0  0  0
    3.2548   -9.9919   17.4189 C   0  0  0  0  0  0  0  0  0  0  0  0
   12.4767   -4.7393   22.1790 C   0  0  0  0  0  0  0  0  0  0  0  0
    7.8593   -5.3772   15.3569 N   0  0  0  0  0  0  0  0  0  0  0  0
    7.4412   -6.9038   16.9283 C   0  0  0  0  0  0  0  0  0  0  0  0
  1 21  4  0
  1 23  4  0
  2  5  1  0
  2 13  4  0
  2 16  4  0
  3  6  4  0
  3  7  4  0
  4 13  4  0
  4 19  4  0
  4 24  4  0
  6 23  4  0
  7 16  1  0
  7 21  4  0
  8 18  1  0
  9 20  4  0
  9 22  4  0
 10 17  1  0
 10 25  1  0
 11 16  4  0
 11 19  4  0
 12 15  4  0
 12 22  4  0
 14 24  4  0
 14 25  4  0
 15 17  4  0
 17 20  4  0
 18 23  1  0
 19 25  4  0
M  END
$$$$

 Created by Python create_sdf_string function

 25 28  0  0  0  0  0  0  0  0999 V2000
   13.1533   -5.2399   21.0682 C   0  0  0  0  0  0  0  0  0  0  0  0
   10.4729   -4.0295   17.6135 C   0  0  0  0  0  0  0  0  0  0  0  0
   10.4789   -4.3641   20.9564 C   0  0  0  0  0  0  0  0  0  0  0  0
    8.7421   -5.1412   16.3650 C   0  0  0  0  0  0  0  0  0  0  0  0
   11.4353   -2.9204   17.8044 C   0  0  0  0  0  0  0  0  0  0  0  0
   11.1529   -4.3028   22.1277 C   0  0  0  0  0  0  0  0  0  0  0  0
   11.1290   -4.8502   19.8052 C   0  0  0  0  0  0  0  0  0  0  0  0
   12.4329   -4.2159   24.4224 C   0  0  0  0  0  0  0  0  0  0  0  0
    3.4740   -9.0387   16.5022 C   0  0  0  0  0  0  0  0  0  0  0  0
    6.8384   -7.9290   17.5282 N   0  0  0  0  0  0  0  0  0  0  0  0
    9.4126   -5.9853   18.4899 C   0  0  0  0  0  0  0  0  0  0  0  0
    4.2064  -10.3242   18.3302 C   0  0  0  0  0  0  0  0  0  0  0  0
    9.6599   -4.1551   16.4796 N   0  0  0  0  0  0  0  0  0  0  0  0
    7.0644   -6.4612   15.7375 N   0  0  0  0  0  0  0  0  0  0  0  0
    5.3549   -9.6322   18.3190 C   0  0  0  0  0  0  0  0  0  0  0  0
   10.3704   -4.9638   18.6510 C   0  0  0  0  0  0  0  0  0  0  0  0
    5.5935   -8.6419   17.4234 C   0  0  0  0  0  0  0  0  0  0  0  0
   13.0726   -4.6648   23.3394 O   0  0  0  0  0  0  0  0  0  0  0  0
    8.5955   -6.0705   17.3996 C   0  0  0  0  0  0  0  0  0  0  0  0
    4.6223   -8.3832   16.5030 C   0  0  0  0  0  0  0  0  0  0  0  0
   12.4690   -5.2624   19.9024 C   0  0  0  0  0  0  0  0  0  0  0  0
    3.2548   -9.9919   17.4189 C   0  0  0  0  0  0  0  0  0  0  0  0
   12.4767   -4.7393   22.1790 C   0  0  0  0  0  0  0  0  0  0  0  0
    7.8593   -5.3772   15.3569 N   0  0  0  0  0  0  0  0  0  0  0  0
    7.4412   -6.9038   16.9283 C   0  0  0  0  0  0  0  0  0  0  0  0
  1 21  4  0
  1 23  4  0
  2  5  1  0
  2 13  4  0
  2 16  4  0
  3  6  4  0
  3  7  4  0
  4 13  4  0
  4 19  4  0
  4 24  4  0
  6 23  4  0
  7 16  1  0
  7 21  4  0
  8 18  1  0
  9 20  4  0
  9 22  4  0
 10 17  1  0
 10 25  1  0
 11 16  4  0
 11 19  4  0
 12 15  4  0
 12 22  4  0
 14 24  4  0
 14 25  4  0
 15 17  4  0
 17 20  4  0
 18 23  1  0
 19 25  4  0
M  END
$$$$

 Created by Python create_sdf_string function

 25 28  0  0  0  0  0  0  0  0999 V2000
   13.1533   -5.2399   21.0682 C   0  0  0  0  0  0  0  0  0  0  0  0
   10.4729   -4.0295   17.6135 C   0  0  0  0  0  0  0  0  0  0  0  0
   10.4789   -4.3641   20.9564 C   0  0  0  0  0  0  0  0  0  0  0  0
    8.7421   -5.1412   16.3650 C   0  0  0  0  0  0  0  0  0  0  0  0
   11.4353   -2.9204   17.8044 C   0  0  0  0  0  0  0  0  0  0  0  0
   11.1529   -4.3028   22.1277 C   0  0  0  0  0  0  0  0  0  0  0  0
   11.1290   -4.8502   19.8052 C   0  0  0  0  0  0  0  0  0  0  0  0
   12.4329   -4.2159   24.4224 C   0  0  0  0  0  0  0  0  0  0  0  0
    3.4740   -9.0387   16.5022 C   0  0  0  0  0  0  0  0  0  0  0  0
    6.8384   -7.9290   17.5282 N   0  0  0  0  0  0  0  0  0  0  0  0
    9.4126   -5.9853   18.4899 C   0  0  0  0  0  0  0  0  0  0  0  0
    4.2064  -10.3242   18.3302 C   0  0  0  0  0  0  0  0  0  0  0  0
    9.6599   -4.1551   16.4796 N   0  0  0  0  0  0  0  0  0  0  0  0
    7.0644   -6.4612   15.7375 N   0  0  0  0  0  0  0  0  0  0  0  0
    5.3549   -9.6322   18.3190 C   0  0  0  0  0  0  0  0  0  0  0  0
   10.3704   -4.9638   18.6510 C   0  0  0  0  0  0  0  0  0  0  0  0
    5.5935   -8.6419   17.4234 C   0  0  0  0  0  0  0  0  0  0  0  0
   13.0726   -4.6648   23.3394 O   0  0  0  0  0  0  0  0  0  0  0  0
    8.5955   -6.0705   17.3996 C   0  0  0  0  0  0  0  0  0  0  0  0
    4.6223   -8.3832   16.5030 C   0  0  0  0  0  0  0  0  0  0  0  0
   12.4690   -5.2624   19.9024 C   0  0  0  0  0  0  0  0  0  0  0  0
    3.2548   -9.9919   17.4189 C   0  0  0  0  0  0  0  0  0  0  0  0
   12.4767   -4.7393   22.1790 C   0  0  0  0  0  0  0  0  0  0  0  0
    7.8593   -5.3772   15.3569 N   0  0  0  0  0  0  0  0  0  0  0  0
    7.4412   -6.9038   16.9283 C   0  0  0  0  0  0  0  0  0  0  0  0
  1 21  4  0
  1 23  4  0
  2  5  1  0
  2 13  4  0
  2 16  4  0
  3  6  4  0
  3  7  4  0
  4 13  4  0
  4 19  4  0
  4 24  4  0
  6 23  4  0
  7 16  1  0
  7 21  4  0
  8 18  1  0
  9 20  4  0
  9 22  4  0
 10 17  1  0
 10 25  1  0
 11 16  4  0
 11 19  4  0
 12 15  4  0
 12 22  4  0
 14 24  4  0
 14 25  4  0
 15 17  4  0
 17 20  4  0
 18 23  1  0
 19 25  4  0
M  END
$$$$

 Created by Python create_sdf_string function

 25 28  0  0  0  0  0  0  0  0999 V2000
   13.1533   -5.2399   21.0682 C   0  0  0  0  0  0  0  0  0  0  0  0
   10.4729   -4.0295   17.6135 C   0  0  0  0  0  0  0  0  0  0  0  0
   10.4789   -4.3641   20.9564 C   0  0  0  0  0  0  0  0  0  0  0  0
    8.7421   -5.1412   16.3650 C   0  0  0  0  0  0  0  0  0  0  0  0
   11.4353   -2.9204   17.8044 C   0  0  0  0  0  0  0  0  0  0  0  0
   11.1529   -4.3028   22.1277 C   0  0  0  0  0  0  0  0  0  0  0  0
   11.1290   -4.8502   19.8052 C   0  0  0  0  0  0  0  0  0  0  0  0
   12.4329   -4.2159   24.4224 C   0  0  0  0  0  0  0  0  0  0  0  0
    3.4740   -9.0387   16.5022 C   0  0  0  0  0  0  0  0  0  0  0  0
    6.8384   -7.9290   17.5282 N   0  0  0  0  0  0  0  0  0  0  0  0
    9.4126   -5.9853   18.4899 C   0  0  0  0  0  0  0  0  0  0  0  0
    4.2064  -10.3242   18.3302 C   0  0  0  0  0  0  0  0  0  0  0  0
    9.6599   -4.1551   16.4796 N   0  0  0  0  0  0  0  0  0  0  0  0
    7.0644   -6.4612   15.7375 N   0  0  0  0  0  0  0  0  0  0  0  0
    5.3549   -9.6322   18.3190 C   0  0  0  0  0  0  0  0  0  0  0  0
   10.3704   -4.9638   18.6510 C   0  0  0  0  0  0  0  0  0  0  0  0
    5.5935   -8.6419   17.4234 C   0  0  0  0  0  0  0  0  0  0  0  0
   13.0726   -4.6648   23.3394 O   0  0  0  0  0  0  0  0  0  0  0  0
    8.5955   -6.0705   17.3996 C   0  0  0  0  0  0  0  0  0  0  0  0
    4.6223   -8.3832   16.5030 C   0  0  0  0  0  0  0  0  0  0  0  0
   12.4690   -5.2624   19.9024 C   0  0  0  0  0  0  0  0  0  0  0  0
    3.2548   -9.9919   17.4189 C   0  0  0  0  0  0  0  0  0  0  0  0
   12.4767   -4.7393   22.1790 C   0  0  0  0  0  0  0  0  0  0  0  0
    7.8593   -5.3772   15.3569 N   0  0  0  0  0  0  0  0  0  0  0  0
    7.4412   -6.9038   16.9283 C   0  0  0  0  0  0  0  0  0  0  0  0
  1 21  4  0
  1 23  4  0
  2  5  1  0
  2 13  4  0
  2 16  4  0
  3  6  4  0
  3  7  4  0
  4 13  4  0
  4 19  4  0
  4 24  4  0
  6 23  4  0
  7 16  1  0
  7 21  4  0
  8 18  1  0
  9 20  4  0
  9 22  4  0
 10 17  1  0
 10 25  1  0
 11 16  4  0
 11 19  4  0
 12 15  4  0
 12 22  4  0
 14 24  4  0
 14 25  4  0
 15 17  4  0
 17 20  4  0
 18 23  1  0
 19 25  4  0
M  END
$$$$

 Created by Python create_sdf_string function

 25 28  0  0  0  0  0  0  0  0999 V2000
   13.1533   -5.2399   21.0682 C   0  0  0  0  0  0  0  0  0  0  0  0
   10.4729   -4.0295   17.6135 C   0  0  0  0  0  0  0  0  0  0  0  0
   10.4789   -4.3641   20.9564 C   0  0  0  0  0  0  0  0  0  0  0  0
    8.7421   -5.1412   16.3650 C   0  0  0  0  0  0  0  0  0  0  0  0
   11.4353   -2.9204   17.8044 C   0  0  0  0  0  0  0  0  0  0  0  0
   11.1529   -4.3028   22.1277 C   0  0  0  0  0  0  0  0  0  0  0  0
   11.1290   -4.8502   19.8052 C   0  0  0  0  0  0  0  0  0  0  0  0
   12.4329   -4.2159   24.4224 C   0  0  0  0  0  0  0  0  0  0  0  0
    3.4740   -9.0387   16.5022 C   0  0  0  0  0  0  0  0  0  0  0  0
    6.8384   -7.9290   17.5282 N   0  0  0  0  0  0  0  0  0  0  0  0
    9.4126   -5.9853   18.4899 C   0  0  0  0  0  0  0  0  0  0  0  0
    4.2064  -10.3242   18.3302 C   0  0  0  0  0  0  0  0  0  0  0  0
    9.6599   -4.1551   16.4796 N   0  0  0  0  0  0  0  0  0  0  0  0
    7.0644   -6.4612   15.7375 N   0  0  0  0  0  0  0  0  0  0  0  0
    5.3549   -9.6322   18.3190 C   0  0  0  0  0  0  0  0  0  0  0  0
   10.3704   -4.9638   18.6510 C   0  0  0  0  0  0  0  0  0  0  0  0
    5.5935   -8.6419   17.4234 C   0  0  0  0  0  0  0  0  0  0  0  0
   13.0726   -4.6648   23.3394 O   0  0  0  0  0  0  0  0  0  0  0  0
    8.5955   -6.0705   17.3996 C   0  0  0  0  0  0  0  0  0  0  0  0
    4.6223   -8.3832   16.5030 C   0  0  0  0  0  0  0  0  0  0  0  0
   12.4690   -5.2624   19.9024 C   0  0  0  0  0  0  0  0  0  0  0  0
    3.2548   -9.9919   17.4189 C   0  0  0  0  0  0  0  0  0  0  0  0
   12.4767   -4.7393   22.1790 C   0  0  0  0  0  0  0  0  0  0  0  0
    7.8593   -5.3772   15.3569 N   0  0  0  0  0  0  0  0  0  0  0  0
    7.4412   -6.9038   16.9283 C   0  0  0  0  0  0  0  0  0  0  0  0
  1 21  4  0
  1 23  4  0
  2  5  1  0
  2 13  4  0
  2 16  4  0
  3  6  4  0
  3  7  4  0
  4 13  4  0
  4 19  4  0
  4 24  4  0
  6 23  4  0
  7 16  1  0
  7 21  4  0
  8 18  1  0
  9 20  4  0
  9 22  4  0
 10 17  1  0
 10 25  1  0
 11 16  4  0
 11 19  4  0
 12 15  4  0
 12 22  4  0
 14 24  4  0
 14 25  4  0
 15 17  4  0
 17 20  4  0
 18 23  1  0
 19 25  4  0
M  END
$$$$

 Created by Python create_sdf_string function

 25 28  0  0  0  0  0  0  0  0999 V2000
   13.1533   -5.2399   21.0682 C   0  0  0  0  0  0  0  0  0  0  0  0
   10.4729   -4.0295   17.6135 C   0  0  0  0  0  0  0  0  0  0  0  0
   10.4789   -4.3641   20.9564 C   0  0  0  0  0  0  0  0  0  0  0  0
    8.7421   -5.1412   16.3650 C   0  0  0  0  0  0  0  0  0  0  0  0
   11.4353   -2.9204   17.8044 C   0  0  0  0  0  0  0  0  0  0  0  0
   11.1529   -4.3028   22.1277 C   0  0  0  0  0  0  0  0  0  0  0  0
   11.1290   -4.8502   19.8052 C   0  0  0  0  0  0  0  0  0  0  0  0
   12.4329   -4.2159   24.4224 C   0  0  0  0  0  0  0  0  0  0  0  0
    3.4740   -9.0387   16.5022 C   0  0  0  0  0  0  0  0  0  0  0  0
    6.8384   -7.9290   17.5282 N   0  0  0  0  0  0  0  0  0  0  0  0
    9.4126   -5.9853   18.4899 C   0  0  0  0  0  0  0  0  0  0  0  0
    4.2064  -10.3242   18.3302 C   0  0  0  0  0  0  0  0  0  0  0  0
    9.6599   -4.1551   16.4796 N   0  0  0  0  0  0  0  0  0  0  0  0
    7.0644   -6.4612   15.7375 N   0  0  0  0  0  0  0  0  0  0  0  0
    5.3549   -9.6322   18.3190 C   0  0  0  0  0  0  0  0  0  0  0  0
   10.3704   -4.9638   18.6510 C   0  0  0  0  0  0  0  0  0  0  0  0
    5.5935   -8.6419   17.4234 C   0  0  0  0  0  0  0  0  0  0  0  0
   13.0726   -4.6648   23.3394 O   0  0  0  0  0  0  0  0  0  0  0  0
    8.5955   -6.0705   17.3996 C   0  0  0  0  0  0  0  0  0  0  0  0
    4.6223   -8.3832   16.5030 C   0  0  0  0  0  0  0  0  0  0  0  0
   12.4690   -5.2624   19.9024 C   0  0  0  0  0  0  0  0  0  0  0  0
    3.2548   -9.9919   17.4189 C   0  0  0  0  0  0  0  0  0  0  0  0
   12.4767   -4.7393   22.1790 C   0  0  0  0  0  0  0  0  0  0  0  0
    7.8593   -5.3772   15.3569 N   0  0  0  0  0  0  0  0  0  0  0  0
    7.4412   -6.9038   16.9283 C   0  0  0  0  0  0  0  0  0  0  0  0
  1 21  4  0
  1 23  4  0
  2  5  1  0
  2 13  4  0
  2 16  4  0
  3  6  4  0
  3  7  4  0
  4 13  4  0
  4 19  4  0
  4 24  4  0
  6 23  4  0
  7 16  1  0
  7 21  4  0
  8 18  1  0
  9 20  4  0
  9 22  4  0
 10 17  1  0
 10 25  1  0
 11 16  4  0
 11 19  4  0
 12 15  4  0
 12 22  4  0
 14 24  4  0
 14 25  4  0
 15 17  4  0
 17 20  4  0
 18 23  1  0
 19 25  4  0
M  END
$$$$

 Created by Python create_sdf_string function

 25 28  0  0  0  0  0  0  0  0999 V2000
   13.1533   -5.2399   21.0682 C   0  0  0  0  0  0  0  0  0  0  0  0
   10.4729   -4.0295   17.6135 C   0  0  0  0  0  0  0  0  0  0  0  0
   10.4789   -4.3641   20.9564 C   0  0  0  0  0  0  0  0  0  0  0  0
    8.7421   -5.1412   16.3650 C   0  0  0  0  0  0  0  0  0  0  0  0
   11.4353   -2.9204   17.8044 C   0  0  0  0  0  0  0  0  0  0  0  0
   11.1529   -4.3028   22.1277 C   0  0  0  0  0  0  0  0  0  0  0  0
   11.1290   -4.8502   19.8052 C   0  0  0  0  0  0  0  0  0  0  0  0
   12.4329   -4.2159   24.4224 C   0  0  0  0  0  0  0  0  0  0  0  0
    3.4740   -9.0387   16.5022 C   0  0  0  0  0  0  0  0  0  0  0  0
    6.8384   -7.9290   17.5282 N   0  0  0  0  0  0  0  0  0  0  0  0
    9.4126   -5.9853   18.4899 C   0  0  0  0  0  0  0  0  0  0  0  0
    4.2064  -10.3242   18.3302 C   0  0  0  0  0  0  0  0  0  0  0  0
    9.6599   -4.1551   16.4796 N   0  0  0  0  0  0  0  0  0  0  0  0
    7.0644   -6.4612   15.7375 N   0  0  0  0  0  0  0  0  0  0  0  0
    5.3549   -9.6322   18.3190 C   0  0  0  0  0  0  0  0  0  0  0  0
   10.3704   -4.9638   18.6510 C   0  0  0  0  0  0  0  0  0  0  0  0
    5.5935   -8.6419   17.4234 C   0  0  0  0  0  0  0  0  0  0  0  0
   13.0726   -4.6648   23.3394 O   0  0  0  0  0  0  0  0  0  0  0  0
    8.5955   -6.0705   17.3996 C   0  0  0  0  0  0  0  0  0  0  0  0
    4.6223   -8.3832   16.5030 C   0  0  0  0  0  0  0  0  0  0  0  0
   12.4690   -5.2624   19.9024 C   0  0  0  0  0  0  0  0  0  0  0  0
    3.2548   -9.9919   17.4189 C   0  0  0  0  0  0  0  0  0  0  0  0
   12.4767   -4.7393   22.1790 C   0  0  0  0  0  0  0  0  0  0  0  0
    7.8593   -5.3772   15.3569 N   0  0  0  0  0  0  0  0  0  0  0  0
    7.4412   -6.9038   16.9283 C   0  0  0  0  0  0  0  0  0  0  0  0
  1 21  4  0
  1 23  4  0
  2  5  1  0
  2 13  4  0
  2 16  4  0
  3  6  4  0
  3  7  4  0
  4 13  4  0
  4 19  4  0
  4 24  4  0
  6 23  4  0
  7 16  1  0
  7 21  4  0
  8 18  1  0
  9 20  4  0
  9 22  4  0
 10 17  1  0
 10 25  1  0
 11 16  4  0
 11 19  4  0
 12 15  4  0
 12 22  4  0
 14 24  4  0
 14 25  4  0
 15 17  4  0
 17 20  4  0
 18 23  1  0
 19 25  4  0
M  END
$$$$

 Created by Python create_sdf_string function

 25 28  0  0  0  0  0  0  0  0999 V2000
   13.1533   -5.2399   21.0682 C   0  0  0  0  0  0  0  0  0  0  0  0
   10.4729   -4.0295   17.6135 C   0  0  0  0  0  0  0  0  0  0  0  0
   10.4789   -4.3641   20.9564 C   0  0  0  0  0  0  0  0  0  0  0  0
    8.7421   -5.1412   16.3650 C   0  0  0  0  0  0  0  0  0  0  0  0
   11.4353   -2.9204   17.8044 C   0  0  0  0  0  0  0  0  0  0  0  0
   11.1529   -4.3028   22.1277 C   0  0  0  0  0  0  0  0  0  0  0  0
   11.1290   -4.8502   19.8052 C   0  0  0  0  0  0  0  0  0  0  0  0
   12.4329   -4.2159   24.4224 C   0  0  0  0  0  0  0  0  0  0  0  0
    3.4740   -9.0387   16.5022 C   0  0  0  0  0  0  0  0  0  0  0  0
    6.8384   -7.9290   17.5282 N   0  0  0  0  0  0  0  0  0  0  0  0
    9.4126   -5.9853   18.4899 C   0  0  0  0  0  0  0  0  0  0  0  0
    4.2064  -10.3242   18.3302 C   0  0  0  0  0  0  0  0  0  0  0  0
    9.6599   -4.1551   16.4796 N   0  0  0  0  0  0  0  0  0  0  0  0
    7.0644   -6.4612   15.7375 N   0  0  0  0  0  0  0  0  0  0  0  0
    5.3549   -9.6322   18.3190 C   0  0  0  0  0  0  0  0  0  0  0  0
   10.3704   -4.9638   18.6510 C   0  0  0  0  0  0  0  0  0  0  0  0
    5.5935   -8.6419   17.4234 C   0  0  0  0  0  0  0  0  0  0  0  0
   13.0726   -4.6648   23.3394 O   0  0  0  0  0  0  0  0  0  0  0  0
    8.5955   -6.0705   17.3996 C   0  0  0  0  0  0  0  0  0  0  0  0
    4.6223   -8.3832   16.5030 C   0  0  0  0  0  0  0  0  0  0  0  0
   12.4690   -5.2624   19.9024 C   0  0  0  0  0  0  0  0  0  0  0  0
    3.2548   -9.9919   17.4189 C   0  0  0  0  0  0  0  0  0  0  0  0
   12.4767   -4.7393   22.1790 C   0  0  0  0  0  0  0  0  0  0  0  0
    7.8593   -5.3772   15.3569 N   0  0  0  0  0  0  0  0  0  0  0  0
    7.4412   -6.9038   16.9283 C   0  0  0  0  0  0  0  0  0  0  0  0
  1 21  4  0
  1 23  4  0
  2  5  1  0
  2 13  4  0
  2 16  4  0
  3  6  4  0
  3  7  4  0
  4 13  4  0
  4 19  4  0
  4 24  4  0
  6 23  4  0
  7 16  1  0
  7 21  4  0
  8 18  1  0
  9 20  4  0
  9 22  4  0
 10 17  1  0
 10 25  1  0
 11 16  4  0
 11 19  4  0
 12 15  4  0
 12 22  4  0
 14 24  4  0
 14 25  4  0
 15 17  4  0
 17 20  4  0
 18 23  1  0
 19 25  4  0
M  END
$$$$

 Created by Python create_sdf_string function

 25 28  0  0  0  0  0  0  0  0999 V2000
   13.1533   -5.2399   21.0682 C   0  0  0  0  0  0  0  0  0  0  0  0
   10.4729   -4.0295   17.6135 C   0  0  0  0  0  0  0  0  0  0  0  0
   10.4789   -4.3641   20.9564 C   0  0  0  0  0  0  0  0  0  0  0  0
    8.7421   -5.1412   16.3650 C   0  0  0  0  0  0  0  0  0  0  0  0
   11.4353   -2.9204   17.8044 C   0  0  0  0  0  0  0  0  0  0  0  0
   11.1529   -4.3028   22.1277 C   0  0  0  0  0  0  0  0  0  0  0  0
   11.1290   -4.8502   19.8052 C   0  0  0  0  0  0  0  0  0  0  0  0
   12.4329   -4.2159   24.4224 C   0  0  0  0  0  0  0  0  0  0  0  0
    3.4740   -9.0387   16.5022 C   0  0  0  0  0  0  0  0  0  0  0  0
    6.8384   -7.9290   17.5282 N   0  0  0  0  0  0  0  0  0  0  0  0
    9.4126   -5.9853   18.4899 C   0  0  0  0  0  0  0  0  0  0  0  0
    4.2064  -10.3242   18.3302 C   0  0  0  0  0  0  0  0  0  0  0  0
    9.6599   -4.1551   16.4796 N   0  0  0  0  0  0  0  0  0  0  0  0
    7.0644   -6.4612   15.7375 N   0  0  0  0  0  0  0  0  0  0  0  0
    5.3549   -9.6322   18.3190 C   0  0  0  0  0  0  0  0  0  0  0  0
   10.3704   -4.9638   18.6510 C   0  0  0  0  0  0  0  0  0  0  0  0
    5.5935   -8.6419   17.4234 C   0  0  0  0  0  0  0  0  0  0  0  0
   13.0726   -4.6648   23.3394 O   0  0  0  0  0  0  0  0  0  0  0  0
    8.5955   -6.0705   17.3996 C   0  0  0  0  0  0  0  0  0  0  0  0
    4.6223   -8.3832   16.5030 C   0  0  0  0  0  0  0  0  0  0  0  0
   12.4690   -5.2624   19.9024 C   0  0  0  0  0  0  0  0  0  0  0  0
    3.2548   -9.9919   17.4189 C   0  0  0  0  0  0  0  0  0  0  0  0
   12.4767   -4.7393   22.1790 C   0  0  0  0  0  0  0  0  0  0  0  0
    7.8593   -5.3772   15.3569 N   0  0  0  0  0  0  0  0  0  0  0  0
    7.4412   -6.9038   16.9283 C   0  0  0  0  0  0  0  0  0  0  0  0
  1 21  4  0
  1 23  4  0
  2  5  1  0
  2 13  4  0
  2 16  4  0
  3  6  4  0
  3  7  4  0
  4 13  4  0
  4 19  4  0
  4 24  4  0
  6 23  4  0
  7 16  1  0
  7 21  4  0
  8 18  1  0
  9 20  4  0
  9 22  4  0
 10 17  1  0
 10 25  1  0
 11 16  4  0
 11 19  4  0
 12 15  4  0
 12 22  4  0
 14 24  4  0
 14 25  4  0
 15 17  4  0
 17 20  4  0
 18 23  1  0
 19 25  4  0
M  END
$$$$

 Created by Python create_sdf_string function

 25 28  0  0  0  0  0  0  0  0999 V2000
   13.1533   -5.2399   21.0682 C   0  0  0  0  0  0  0  0  0  0  0  0
   10.4729   -4.0295   17.6135 C   0  0  0  0  0  0  0  0  0  0  0  0
   10.4789   -4.3641   20.9564 C   0  0  0  0  0  0  0  0  0  0  0  0
    8.7421   -5.1412   16.3650 C   0  0  0  0  0  0  0  0  0  0  0  0
   11.4353   -2.9204   17.8044 C   0  0  0  0  0  0  0  0  0  0  0  0
   11.1529   -4.3028   22.1277 C   0  0  0  0  0  0  0  0  0  0  0  0
   11.1290   -4.8502   19.8052 C   0  0  0  0  0  0  0  0  0  0  0  0
   12.4329   -4.2159   24.4224 C   0  0  0  0  0  0  0  0  0  0  0  0
    3.4740   -9.0387   16.5022 C   0  0  0  0  0  0  0  0  0  0  0  0
    6.8384   -7.9290   17.5282 N   0  0  0  0  0  0  0  0  0  0  0  0
    9.4126   -5.9853   18.4899 C   0  0  0  0  0  0  0  0  0  0  0  0
    4.2064  -10.3242   18.3302 C   0  0  0  0  0  0  0  0  0  0  0  0
    9.6599   -4.1551   16.4796 N   0  0  0  0  0  0  0  0  0  0  0  0
    7.0644   -6.4612   15.7375 N   0  0  0  0  0  0  0  0  0  0  0  0
    5.3549   -9.6322   18.3190 C   0  0  0  0  0  0  0  0  0  0  0  0
   10.3704   -4.9638   18.6510 C   0  0  0  0  0  0  0  0  0  0  0  0
    5.5935   -8.6419   17.4234 C   0  0  0  0  0  0  0  0  0  0  0  0
   13.0726   -4.6648   23.3394 O   0  0  0  0  0  0  0  0  0  0  0  0
    8.5955   -6.0705   17.3996 C   0  0  0  0  0  0  0  0  0  0  0  0
    4.6223   -8.3832   16.5030 C   0  0  0  0  0  0  0  0  0  0  0  0
   12.4690   -5.2624   19.9024 C   0  0  0  0  0  0  0  0  0  0  0  0
    3.2548   -9.9919   17.4189 C   0  0  0  0  0  0  0  0  0  0  0  0
   12.4767   -4.7393   22.1790 C   0  0  0  0  0  0  0  0  0  0  0  0
    7.8593   -5.3772   15.3569 N   0  0  0  0  0  0  0  0  0  0  0  0
    7.4412   -6.9038   16.9283 C   0  0  0  0  0  0  0  0  0  0  0  0
  1 21  4  0
  1 23  4  0
  2  5  1  0
  2 13  4  0
  2 16  4  0
  3  6  4  0
  3  7  4  0
  4 13  4  0
  4 19  4  0
  4 24  4  0
  6 23  4  0
  7 16  1  0
  7 21  4  0
  8 18  1  0
  9 20  4  0
  9 22  4  0
 10 17  1  0
 10 25  1  0
 11 16  4  0
 11 19  4  0
 12 15  4  0
 12 22  4  0
 14 24  4  0
 14 25  4  0
 15 17  4  0
 17 20  4  0
 18 23  1  0
 19 25  4  0
M  END
$$$$

 Created by Python create_sdf_string function

 25 28  0  0  0  0  0  0  0  0999 V2000
   13.1533   -5.2399   21.0682 C   0  0  0  0  0  0  0  0  0  0  0  0
   10.4729   -4.0295   17.6135 C   0  0  0  0  0  0  0  0  0  0  0  0
   10.4789   -4.3641   20.9564 C   0  0  0  0  0  0  0  0  0  0  0  0
    8.7421   -5.1412   16.3650 C   0  0  0  0  0  0  0  0  0  0  0  0
   11.4353   -2.9204   17.8044 C   0  0  0  0  0  0  0  0  0  0  0  0
   11.1529   -4.3028   22.1277 C   0  0  0  0  0  0  0  0  0  0  0  0
   11.1290   -4.8502   19.8052 C   0  0  0  0  0  0  0  0  0  0  0  0
   12.4329   -4.2159   24.4224 C   0  0  0  0  0  0  0  0  0  0  0  0
    3.4740   -9.0387   16.5022 C   0  0  0  0  0  0  0  0  0  0  0  0
    6.8384   -7.9290   17.5282 N   0  0  0  0  0  0  0  0  0  0  0  0
    9.4126   -5.9853   18.4899 C   0  0  0  0  0  0  0  0  0  0  0  0
    4.2064  -10.3242   18.3302 C   0  0  0  0  0  0  0  0  0  0  0  0
    9.6599   -4.1551   16.4796 N   0  0  0  0  0  0  0  0  0  0  0  0
    7.0644   -6.4612   15.7375 N   0  0  0  0  0  0  0  0  0  0  0  0
    5.3549   -9.6322   18.3190 C   0  0  0  0  0  0  0  0  0  0  0  0
   10.3704   -4.9638   18.6510 C   0  0  0  0  0  0  0  0  0  0  0  0
    5.5935   -8.6419   17.4234 C   0  0  0  0  0  0  0  0  0  0  0  0
   13.0726   -4.6648   23.3394 O   0  0  0  0  0  0  0  0  0  0  0  0
    8.5955   -6.0705   17.3996 C   0  0  0  0  0  0  0  0  0  0  0  0
    4.6223   -8.3832   16.5030 C   0  0  0  0  0  0  0  0  0  0  0  0
   12.4690   -5.2624   19.9024 C   0  0  0  0  0  0  0  0  0  0  0  0
    3.2548   -9.9919   17.4189 C   0  0  0  0  0  0  0  0  0  0  0  0
   12.4767   -4.7393   22.1790 C   0  0  0  0  0  0  0  0  0  0  0  0
    7.8593   -5.3772   15.3569 N   0  0  0  0  0  0  0  0  0  0  0  0
    7.4412   -6.9038   16.9283 C   0  0  0  0  0  0  0  0  0  0  0  0
  1 21  4  0
  1 23  4  0
  2  5  1  0
  2 13  4  0
  2 16  4  0
  3  6  4  0
  3  7  4  0
  4 13  4  0
  4 19  4  0
  4 24  4  0
  6 23  4  0
  7 16  1  0
  7 21  4  0
  8 18  1  0
  9 20  4  0
  9 22  4  0
 10 17  1  0
 10 25  1  0
 11 16  4  0
 11 19  4  0
 12 15  4  0
 12 22  4  0
 14 24  4  0
 14 25  4  0
 15 17  4  0
 17 20  4  0
 18 23  1  0
 19 25  4  0
M  END
$$$$

 Created by Python create_sdf_string function

 25 28  0  0  0  0  0  0  0  0999 V2000
   13.1533   -5.2399   21.0682 C   0  0  0  0  0  0  0  0  0  0  0  0
   10.4729   -4.0295   17.6135 C   0  0  0  0  0  0  0  0  0  0  0  0
   10.4789   -4.3641   20.9564 C   0  0  0  0  0  0  0  0  0  0  0  0
    8.7421   -5.1412   16.3650 C   0  0  0  0  0  0  0  0  0  0  0  0
   11.4353   -2.9204   17.8044 C   0  0  0  0  0  0  0  0  0  0  0  0
   11.1529   -4.3028   22.1277 C   0  0  0  0  0  0  0  0  0  0  0  0
   11.1290   -4.8502   19.8052 C   0  0  0  0  0  0  0  0  0  0  0  0
   12.4329   -4.2159   24.4224 C   0  0  0  0  0  0  0  0  0  0  0  0
    3.4740   -9.0387   16.5022 C   0  0  0  0  0  0  0  0  0  0  0  0
    6.8384   -7.9290   17.5282 N   0  0  0  0  0  0  0  0  0  0  0  0
    9.4126   -5.9853   18.4899 C   0  0  0  0  0  0  0  0  0  0  0  0
    4.2064  -10.3242   18.3302 C   0  0  0  0  0  0  0  0  0  0  0  0
    9.6599   -4.1551   16.4796 N   0  0  0  0  0  0  0  0  0  0  0  0
    7.0644   -6.4612   15.7375 N   0  0  0  0  0  0  0  0  0  0  0  0
    5.3549   -9.6322   18.3190 C   0  0  0  0  0  0  0  0  0  0  0  0
   10.3704   -4.9638   18.6510 C   0  0  0  0  0  0  0  0  0  0  0  0
    5.5935   -8.6419   17.4234 C   0  0  0  0  0  0  0  0  0  0  0  0
   13.0726   -4.6648   23.3394 O   0  0  0  0  0  0  0  0  0  0  0  0
    8.5955   -6.0705   17.3996 C   0  0  0  0  0  0  0  0  0  0  0  0
    4.6223   -8.3832   16.5030 C   0  0  0  0  0  0  0  0  0  0  0  0
   12.4690   -5.2624   19.9024 C   0  0  0  0  0  0  0  0  0  0  0  0
    3.2548   -9.9919   17.4189 C   0  0  0  0  0  0  0  0  0  0  0  0
   12.4767   -4.7393   22.1790 C   0  0  0  0  0  0  0  0  0  0  0  0
    7.8593   -5.3772   15.3569 N   0  0  0  0  0  0  0  0  0  0  0  0
    7.4412   -6.9038   16.9283 C   0  0  0  0  0  0  0  0  0  0  0  0
  1 21  4  0
  1 23  4  0
  2  5  1  0
  2 13  4  0
  2 16  4  0
  3  6  4  0
  3  7  4  0
  4 13  4  0
  4 19  4  0
  4 24  4  0
  6 23  4  0
  7 16  1  0
  7 21  4  0
  8 18  1  0
  9 20  4  0
  9 22  4  0
 10 17  1  0
 10 25  1  0
 11 16  4  0
 11 19  4  0
 12 15  4  0
 12 22  4  0
 14 24  4  0
 14 25  4  0
 15 17  4  0
 17 20  4  0
 18 23  1  0
 19 25  4  0
M  END
$$$$

 Created by Python create_sdf_string function

 25 28  0  0  0  0  0  0  0  0999 V2000
   13.1533   -5.2399   21.0682 C   0  0  0  0  0  0  0  0  0  0  0  0
   10.4729   -4.0295   17.6135 C   0  0  0  0  0  0  0  0  0  0  0  0
   10.4789   -4.3641   20.9564 C   0  0  0  0  0  0  0  0  0  0  0  0
    8.7421   -5.1412   16.3650 C   0  0  0  0  0  0  0  0  0  0  0  0
   11.4353   -2.9204   17.8044 C   0  0  0  0  0  0  0  0  0  0  0  0
   11.1529   -4.3028   22.1277 C   0  0  0  0  0  0  0  0  0  0  0  0
   11.1290   -4.8502   19.8052 C   0  0  0  0  0  0  0  0  0  0  0  0
   12.4329   -4.2159   24.4224 C   0  0  0  0  0  0  0  0  0  0  0  0
    3.4740   -9.0387   16.5022 C   0  0  0  0  0  0  0  0  0  0  0  0
    6.8384   -7.9290   17.5282 N   0  0  0  0  0  0  0  0  0  0  0  0
    9.4126   -5.9853   18.4899 C   0  0  0  0  0  0  0  0  0  0  0  0
    4.2064  -10.3242   18.3302 C   0  0  0  0  0  0  0  0  0  0  0  0
    9.6599   -4.1551   16.4796 N   0  0  0  0  0  0  0  0  0  0  0  0
    7.0644   -6.4612   15.7375 N   0  0  0  0  0  0  0  0  0  0  0  0
    5.3549   -9.6322   18.3190 C   0  0  0  0  0  0  0  0  0  0  0  0
   10.3704   -4.9638   18.6510 C   0  0  0  0  0  0  0  0  0  0  0  0
    5.5935   -8.6419   17.4234 C   0  0  0  0  0  0  0  0  0  0  0  0
   13.0726   -4.6648   23.3394 O   0  0  0  0  0  0  0  0  0  0  0  0
    8.5955   -6.0705   17.3996 C   0  0  0  0  0  0  0  0  0  0  0  0
    4.6223   -8.3832   16.5030 C   0  0  0  0  0  0  0  0  0  0  0  0
   12.4690   -5.2624   19.9024 C   0  0  0  0  0  0  0  0  0  0  0  0
    3.2548   -9.9919   17.4189 C   0  0  0  0  0  0  0  0  0  0  0  0
   12.4767   -4.7393   22.1790 C   0  0  0  0  0  0  0  0  0  0  0  0
    7.8593   -5.3772   15.3569 N   0  0  0  0  0  0  0  0  0  0  0  0
    7.4412   -6.9038   16.9283 C   0  0  0  0  0  0  0  0  0  0  0  0
  1 21  4  0
  1 23  4  0
  2  5  1  0
  2 13  4  0
  2 16  4  0
  3  6  4  0
  3  7  4  0
  4 13  4  0
  4 19  4  0
  4 24  4  0
  6 23  4  0
  7 16  1  0
  7 21  4  0
  8 18  1  0
  9 20  4  0
  9 22  4  0
 10 17  1  0
 10 25  1  0
 11 16  4  0
 11 19  4  0
 12 15  4  0
 12 22  4  0
 14 24  4  0
 14 25  4  0
 15 17  4  0
 17 20  4  0
 18 23  1  0
 19 25  4  0
M  END
$$$$

 Created by Python create_sdf_string function

 25 28  0  0  0  0  0  0  0  0999 V2000
   13.1533   -5.2399   21.0682 C   0  0  0  0  0  0  0  0  0  0  0  0
   10.4729   -4.0295   17.6135 C   0  0  0  0  0  0  0  0  0  0  0  0
   10.4789   -4.3641   20.9564 C   0  0  0  0  0  0  0  0  0  0  0  0
    8.7421   -5.1412   16.3650 C   0  0  0  0  0  0  0  0  0  0  0  0
   11.4353   -2.9204   17.8044 C   0  0  0  0  0  0  0  0  0  0  0  0
   11.1529   -4.3028   22.1277 C   0  0  0  0  0  0  0  0  0  0  0  0
   11.1290   -4.8502   19.8052 C   0  0  0  0  0  0  0  0  0  0  0  0
   12.4329   -4.2159   24.4224 C   0  0  0  0  0  0  0  0  0  0  0  0
    3.4740   -9.0387   16.5022 C   0  0  0  0  0  0  0  0  0  0  0  0
    6.8384   -7.9290   17.5282 N   0  0  0  0  0  0  0  0  0  0  0  0
    9.4126   -5.9853   18.4899 C   0  0  0  0  0  0  0  0  0  0  0  0
    4.2064  -10.3242   18.3302 C   0  0  0  0  0  0  0  0  0  0  0  0
    9.6599   -4.1551   16.4796 N   0  0  0  0  0  0  0  0  0  0  0  0
    7.0644   -6.4612   15.7375 N   0  0  0  0  0  0  0  0  0  0  0  0
    5.3549   -9.6322   18.3190 C   0  0  0  0  0  0  0  0  0  0  0  0
   10.3704   -4.9638   18.6510 C   0  0  0  0  0  0  0  0  0  0  0  0
    5.5935   -8.6419   17.4234 C   0  0  0  0  0  0  0  0  0  0  0  0
   13.0726   -4.6648   23.3394 O   0  0  0  0  0  0  0  0  0  0  0  0
    8.5955   -6.0705   17.3996 C   0  0  0  0  0  0  0  0  0  0  0  0
    4.6223   -8.3832   16.5030 C   0  0  0  0  0  0  0  0  0  0  0  0
   12.4690   -5.2624   19.9024 C   0  0  0  0  0  0  0  0  0  0  0  0
    3.2548   -9.9919   17.4189 C   0  0  0  0  0  0  0  0  0  0  0  0
   12.4767   -4.7393   22.1790 C   0  0  0  0  0  0  0  0  0  0  0  0
    7.8593   -5.3772   15.3569 N   0  0  0  0  0  0  0  0  0  0  0  0
    7.4412   -6.9038   16.9283 C   0  0  0  0  0  0  0  0  0  0  0  0
  1 21  4  0
  1 23  4  0
  2  5  1  0
  2 13  4  0
  2 16  4  0
  3  6  4  0
  3  7  4  0
  4 13  4  0
  4 19  4  0
  4 24  4  0
  6 23  4  0
  7 16  1  0
  7 21  4  0
  8 18  1  0
  9 20  4  0
  9 22  4  0
 10 17  1  0
 10 25  1  0
 11 16  4  0
 11 19  4  0
 12 15  4  0
 12 22  4  0
 14 24  4  0
 14 25  4  0
 15 17  4  0
 17 20  4  0
 18 23  1  0
 19 25  4  0
M  END
$$$$

 Created by Python create_sdf_string function

 25 28  0  0  0  0  0  0  0  0999 V2000
   13.1533   -5.2399   21.0682 C   0  0  0  0  0  0  0  0  0  0  0  0
   10.4729   -4.0295   17.6135 C   0  0  0  0  0  0  0  0  0  0  0  0
   10.4789   -4.3641   20.9564 C   0  0  0  0  0  0  0  0  0  0  0  0
    8.7421   -5.1412   16.3650 C   0  0  0  0  0  0  0  0  0  0  0  0
   11.4353   -2.9204   17.8044 C   0  0  0  0  0  0  0  0  0  0  0  0
   11.1529   -4.3028   22.1277 C   0  0  0  0  0  0  0  0  0  0  0  0
   11.1290   -4.8502   19.8052 C   0  0  0  0  0  0  0  0  0  0  0  0
   12.4329   -4.2159   24.4224 C   0  0  0  0  0  0  0  0  0  0  0  0
    3.4740   -9.0387   16.5022 C   0  0  0  0  0  0  0  0  0  0  0  0
    6.8384   -7.9290   17.5282 N   0  0  0  0  0  0  0  0  0  0  0  0
    9.4126   -5.9853   18.4899 C   0  0  0  0  0  0  0  0  0  0  0  0
    4.2064  -10.3242   18.3302 C   0  0  0  0  0  0  0  0  0  0  0  0
    9.6599   -4.1551   16.4796 N   0  0  0  0  0  0  0  0  0  0  0  0
    7.0644   -6.4612   15.7375 N   0  0  0  0  0  0  0  0  0  0  0  0
    5.3549   -9.6322   18.3190 C   0  0  0  0  0  0  0  0  0  0  0  0
   10.3704   -4.9638   18.6510 C   0  0  0  0  0  0  0  0  0  0  0  0
    5.5935   -8.6419   17.4234 C   0  0  0  0  0  0  0  0  0  0  0  0
   13.0726   -4.6648   23.3394 O   0  0  0  0  0  0  0  0  0  0  0  0
    8.5955   -6.0705   17.3996 C   0  0  0  0  0  0  0  0  0  0  0  0
    4.6223   -8.3832   16.5030 C   0  0  0  0  0  0  0  0  0  0  0  0
   12.4690   -5.2624   19.9024 C   0  0  0  0  0  0  0  0  0  0  0  0
    3.2548   -9.9919   17.4189 C   0  0  0  0  0  0  0  0  0  0  0  0
   12.4767   -4.7393   22.1790 C   0  0  0  0  0  0  0  0  0  0  0  0
    7.8593   -5.3772   15.3569 N   0  0  0  0  0  0  0  0  0  0  0  0
    7.4412   -6.9038   16.9283 C   0  0  0  0  0  0  0  0  0  0  0  0
  1 21  4  0
  1 23  4  0
  2  5  1  0
  2 13  4  0
  2 16  4  0
  3  6  4  0
  3  7  4  0
  4 13  4  0
  4 19  4  0
  4 24  4  0
  6 23  4  0
  7 16  1  0
  7 21  4  0
  8 18  1  0
  9 20  4  0
  9 22  4  0
 10 17  1  0
 10 25  1  0
 11 16  4  0
 11 19  4  0
 12 15  4  0
 12 22  4  0
 14 24  4  0
 14 25  4  0
 15 17  4  0
 17 20  4  0
 18 23  1  0
 19 25  4  0
M  END
$$$$

 Created by Python create_sdf_string function

 25 28  0  0  0  0  0  0  0  0999 V2000
   13.1533   -5.2399   21.0682 C   0  0  0  0  0  0  0  0  0  0  0  0
   10.4729   -4.0295   17.6135 C   0  0  0  0  0  0  0  0  0  0  0  0
   10.4789   -4.3641   20.9564 C   0  0  0  0  0  0  0  0  0  0  0  0
    8.7421   -5.1412   16.3650 C   0  0  0  0  0  0  0  0  0  0  0  0
   11.4353   -2.9204   17.8044 C   0  0  0  0  0  0  0  0  0  0  0  0
   11.1529   -4.3028   22.1277 C   0  0  0  0  0  0  0  0  0  0  0  0
   11.1290   -4.8502   19.8052 C   0  0  0  0  0  0  0  0  0  0  0  0
   12.4329   -4.2159   24.4224 C   0  0  0  0  0  0  0  0  0  0  0  0
    3.4740   -9.0387   16.5022 C   0  0  0  0  0  0  0  0  0  0  0  0
    6.8384   -7.9290   17.5282 N   0  0  0  0  0  0  0  0  0  0  0  0
    9.4126   -5.9853   18.4899 C   0  0  0  0  0  0  0  0  0  0  0  0
    4.2064  -10.3242   18.3302 C   0  0  0  0  0  0  0  0  0  0  0  0
    9.6599   -4.1551   16.4796 N   0  0  0  0  0  0  0  0  0  0  0  0
    7.0644   -6.4612   15.7375 N   0  0  0  0  0  0  0  0  0  0  0  0
    5.3549   -9.6322   18.3190 C   0  0  0  0  0  0  0  0  0  0  0  0
   10.3704   -4.9638   18.6510 C   0  0  0  0  0  0  0  0  0  0  0  0
    5.5935   -8.6419   17.4234 C   0  0  0  0  0  0  0  0  0  0  0  0
   13.0726   -4.6648   23.3394 O   0  0  0  0  0  0  0  0  0  0  0  0
    8.5955   -6.0705   17.3996 C   0  0  0  0  0  0  0  0  0  0  0  0
    4.6223   -8.3832   16.5030 C   0  0  0  0  0  0  0  0  0  0  0  0
   12.4690   -5.2624   19.9024 C   0  0  0  0  0  0  0  0  0  0  0  0
    3.2548   -9.9919   17.4189 C   0  0  0  0  0  0  0  0  0  0  0  0
   12.4767   -4.7393   22.1790 C   0  0  0  0  0  0  0  0  0  0  0  0
    7.8593   -5.3772   15.3569 N   0  0  0  0  0  0  0  0  0  0  0  0
    7.4412   -6.9038   16.9283 C   0  0  0  0  0  0  0  0  0  0  0  0
  1 21  4  0
  1 23  4  0
  2  5  1  0
  2 13  4  0
  2 16  4  0
  3  6  4  0
  3  7  4  0
  4 13  4  0
  4 19  4  0
  4 24  4  0
  6 23  4  0
  7 16  1  0
  7 21  4  0
  8 18  1  0
  9 20  4  0
  9 22  4  0
 10 17  1  0
 10 25  1  0
 11 16  4  0
 11 19  4  0
 12 15  4  0
 12 22  4  0
 14 24  4  0
 14 25  4  0
 15 17  4  0
 17 20  4  0
 18 23  1  0
 19 25  4  0
M  END
$$$$

 Created by Python create_sdf_string function

 25 28  0  0  0  0  0  0  0  0999 V2000
   13.1533   -5.2399   21.0682 C   0  0  0  0  0  0  0  0  0  0  0  0
   10.4729   -4.0295   17.6135 C   0  0  0  0  0  0  0  0  0  0  0  0
   10.4789   -4.3641   20.9564 C   0  0  0  0  0  0  0  0  0  0  0  0
    8.7421   -5.1412   16.3650 C   0  0  0  0  0  0  0  0  0  0  0  0
   11.4353   -2.9204   17.8044 C   0  0  0  0  0  0  0  0  0  0  0  0
   11.1529   -4.3028   22.1277 C   0  0  0  0  0  0  0  0  0  0  0  0
   11.1290   -4.8502   19.8052 C   0  0  0  0  0  0  0  0  0  0  0  0
   12.4329   -4.2159   24.4224 C   0  0  0  0  0  0  0  0  0  0  0  0
    3.4740   -9.0387   16.5022 C   0  0  0  0  0  0  0  0  0  0  0  0
    6.8384   -7.9290   17.5282 N   0  0  0  0  0  0  0  0  0  0  0  0
    9.4126   -5.9853   18.4899 C   0  0  0  0  0  0  0  0  0  0  0  0
    4.2064  -10.3242   18.3302 C   0  0  0  0  0  0  0  0  0  0  0  0
    9.6599   -4.1551   16.4796 N   0  0  0  0  0  0  0  0  0  0  0  0
    7.0644   -6.4612   15.7375 N   0  0  0  0  0  0  0  0  0  0  0  0
    5.3549   -9.6322   18.3190 C   0  0  0  0  0  0  0  0  0  0  0  0
   10.3704   -4.9638   18.6510 C   0  0  0  0  0  0  0  0  0  0  0  0
    5.5935   -8.6419   17.4234 C   0  0  0  0  0  0  0  0  0  0  0  0
   13.0726   -4.6648   23.3394 O   0  0  0  0  0  0  0  0  0  0  0  0
    8.5955   -6.0705   17.3996 C   0  0  0  0  0  0  0  0  0  0  0  0
    4.6223   -8.3832   16.5030 C   0  0  0  0  0  0  0  0  0  0  0  0
   12.4690   -5.2624   19.9024 C   0  0  0  0  0  0  0  0  0  0  0  0
    3.2548   -9.9919   17.4189 C   0  0  0  0  0  0  0  0  0  0  0  0
   12.4767   -4.7393   22.1790 C   0  0  0  0  0  0  0  0  0  0  0  0
    7.8593   -5.3772   15.3569 N   0  0  0  0  0  0  0  0  0  0  0  0
    7.4412   -6.9038   16.9283 C   0  0  0  0  0  0  0  0  0  0  0  0
  1 21  4  0
  1 23  4  0
  2  5  1  0
  2 13  4  0
  2 16  4  0
  3  6  4  0
  3  7  4  0
  4 13  4  0
  4 19  4  0
  4 24  4  0
  6 23  4  0
  7 16  1  0
  7 21  4  0
  8 18  1  0
  9 20  4  0
  9 22  4  0
 10 17  1  0
 10 25  1  0
 11 16  4  0
 11 19  4  0
 12 15  4  0
 12 22  4  0
 14 24  4  0
 14 25  4  0
 15 17  4  0
 17 20  4  0
 18 23  1  0
 19 25  4  0
M  END
$$$$

 Created by Python create_sdf_string function

 25 28  0  0  0  0  0  0  0  0999 V2000
   13.1533   -5.2399   21.0682 C   0  0  0  0  0  0  0  0  0  0  0  0
   10.4729   -4.0295   17.6135 C   0  0  0  0  0  0  0  0  0  0  0  0
   10.4789   -4.3641   20.9564 C   0  0  0  0  0  0  0  0  0  0  0  0
    8.7421   -5.1412   16.3650 C   0  0  0  0  0  0  0  0  0  0  0  0
   11.4353   -2.9204   17.8044 C   0  0  0  0  0  0  0  0  0  0  0  0
   11.1529   -4.3028   22.1277 C   0  0  0  0  0  0  0  0  0  0  0  0
   11.1290   -4.8502   19.8052 C   0  0  0  0  0  0  0  0  0  0  0  0
   12.4329   -4.2159   24.4224 C   0  0  0  0  0  0  0  0  0  0  0  0
    3.4740   -9.0387   16.5022 C   0  0  0  0  0  0  0  0  0  0  0  0
    6.8384   -7.9290   17.5282 N   0  0  0  0  0  0  0  0  0  0  0  0
    9.4126   -5.9853   18.4899 C   0  0  0  0  0  0  0  0  0  0  0  0
    4.2064  -10.3242   18.3302 C   0  0  0  0  0  0  0  0  0  0  0  0
    9.6599   -4.1551   16.4796 N   0  0  0  0  0  0  0  0  0  0  0  0
    7.0644   -6.4612   15.7375 N   0  0  0  0  0  0  0  0  0  0  0  0
    5.3549   -9.6322   18.3190 C   0  0  0  0  0  0  0  0  0  0  0  0
   10.3704   -4.9638   18.6510 C   0  0  0  0  0  0  0  0  0  0  0  0
    5.5935   -8.6419   17.4234 C   0  0  0  0  0  0  0  0  0  0  0  0
   13.0726   -4.6648   23.3394 O   0  0  0  0  0  0  0  0  0  0  0  0
    8.5955   -6.0705   17.3996 C   0  0  0  0  0  0  0  0  0  0  0  0
    4.6223   -8.3832   16.5030 C   0  0  0  0  0  0  0  0  0  0  0  0
   12.4690   -5.2624   19.9024 C   0  0  0  0  0  0  0  0  0  0  0  0
    3.2548   -9.9919   17.4189 C   0  0  0  0  0  0  0  0  0  0  0  0
   12.4767   -4.7393   22.1790 C   0  0  0  0  0  0  0  0  0  0  0  0
    7.8593   -5.3772   15.3569 N   0  0  0  0  0  0  0  0  0  0  0  0
    7.4412   -6.9038   16.9283 C   0  0  0  0  0  0  0  0  0  0  0  0
  1 21  4  0
  1 23  4  0
  2  5  1  0
  2 13  4  0
  2 16  4  0
  3  6  4  0
  3  7  4  0
  4 13  4  0
  4 19  4  0
  4 24  4  0
  6 23  4  0
  7 16  1  0
  7 21  4  0
  8 18  1  0
  9 20  4  0
  9 22  4  0
 10 17  1  0
 10 25  1  0
 11 16  4  0
 11 19  4  0
 12 15  4  0
 12 22  4  0
 14 24  4  0
 14 25  4  0
 15 17  4  0
 17 20  4  0
 18 23  1  0
 19 25  4  0
M  END
$$$$

 Created by Python create_sdf_string function

 25 28  0  0  0  0  0  0  0  0999 V2000
   13.1533   -5.2399   21.0682 C   0  0  0  0  0  0  0  0  0  0  0  0
   10.4729   -4.0295   17.6135 C   0  0  0  0  0  0  0  0  0  0  0  0
   10.4789   -4.3641   20.9564 C   0  0  0  0  0  0  0  0  0  0  0  0
    8.7421   -5.1412   16.3650 C   0  0  0  0  0  0  0  0  0  0  0  0
   11.4353   -2.9204   17.8044 C   0  0  0  0  0  0  0  0  0  0  0  0
   11.1529   -4.3028   22.1277 C   0  0  0  0  0  0  0  0  0  0  0  0
   11.1290   -4.8502   19.8052 C   0  0  0  0  0  0  0  0  0  0  0  0
   12.4329   -4.2159   24.4224 C   0  0  0  0  0  0  0  0  0  0  0  0
    3.4740   -9.0387   16.5022 C   0  0  0  0  0  0  0  0  0  0  0  0
    6.8384   -7.9290   17.5282 N   0  0  0  0  0  0  0  0  0  0  0  0
    9.4126   -5.9853   18.4899 C   0  0  0  0  0  0  0  0  0  0  0  0
    4.2064  -10.3242   18.3302 C   0  0  0  0  0  0  0  0  0  0  0  0
    9.6599   -4.1551   16.4796 N   0  0  0  0  0  0  0  0  0  0  0  0
    7.0644   -6.4612   15.7375 N   0  0  0  0  0  0  0  0  0  0  0  0
    5.3549   -9.6322   18.3190 C   0  0  0  0  0  0  0  0  0  0  0  0
   10.3704   -4.9638   18.6510 C   0  0  0  0  0  0  0  0  0  0  0  0
    5.5935   -8.6419   17.4234 C   0  0  0  0  0  0  0  0  0  0  0  0
   13.0726   -4.6648   23.3394 O   0  0  0  0  0  0  0  0  0  0  0  0
    8.5955   -6.0705   17.3996 C   0  0  0  0  0  0  0  0  0  0  0  0
    4.6223   -8.3832   16.5030 C   0  0  0  0  0  0  0  0  0  0  0  0
   12.4690   -5.2624   19.9024 C   0  0  0  0  0  0  0  0  0  0  0  0
    3.2548   -9.9919   17.4189 C   0  0  0  0  0  0  0  0  0  0  0  0
   12.4767   -4.7393   22.1790 C   0  0  0  0  0  0  0  0  0  0  0  0
    7.8593   -5.3772   15.3569 N   0  0  0  0  0  0  0  0  0  0  0  0
    7.4412   -6.9038   16.9283 C   0  0  0  0  0  0  0  0  0  0  0  0
  1 21  4  0
  1 23  4  0
  2  5  1  0
  2 13  4  0
  2 16  4  0
  3  6  4  0
  3  7  4  0
  4 13  4  0
  4 19  4  0
  4 24  4  0
  6 23  4  0
  7 16  1  0
  7 21  4  0
  8 18  1  0
  9 20  4  0
  9 22  4  0
 10 17  1  0
 10 25  1  0
 11 16  4  0
 11 19  4  0
 12 15  4  0
 12 22  4  0
 14 24  4  0
 14 25  4  0
 15 17  4  0
 17 20  4  0
 18 23  1  0
 19 25  4  0
M  END
$$$$

 Created by Python create_sdf_string function

 25 28  0  0  0  0  0  0  0  0999 V2000
   13.1533   -5.2399   21.0682 C   0  0  0  0  0  0  0  0  0  0  0  0
   10.4729   -4.0295   17.6135 C   0  0  0  0  0  0  0  0  0  0  0  0
   10.4789   -4.3641   20.9564 C   0  0  0  0  0  0  0  0  0  0  0  0
    8.7421   -5.1412   16.3650 C   0  0  0  0  0  0  0  0  0  0  0  0
   11.4353   -2.9204   17.8044 C   0  0  0  0  0  0  0  0  0  0  0  0
   11.1529   -4.3028   22.1277 C   0  0  0  0  0  0  0  0  0  0  0  0
   11.1290   -4.8502   19.8052 C   0  0  0  0  0  0  0  0  0  0  0  0
   12.4329   -4.2159   24.4224 C   0  0  0  0  0  0  0  0  0  0  0  0
    3.4740   -9.0387   16.5022 C   0  0  0  0  0  0  0  0  0  0  0  0
    6.8384   -7.9290   17.5282 N   0  0  0  0  0  0  0  0  0  0  0  0
    9.4126   -5.9853   18.4899 C   0  0  0  0  0  0  0  0  0  0  0  0
    4.2064  -10.3242   18.3302 C   0  0  0  0  0  0  0  0  0  0  0  0
    9.6599   -4.1551   16.4796 N   0  0  0  0  0  0  0  0  0  0  0  0
    7.0644   -6.4612   15.7375 N   0  0  0  0  0  0  0  0  0  0  0  0
    5.3549   -9.6322   18.3190 C   0  0  0  0  0  0  0  0  0  0  0  0
   10.3704   -4.9638   18.6510 C   0  0  0  0  0  0  0  0  0  0  0  0
    5.5935   -8.6419   17.4234 C   0  0  0  0  0  0  0  0  0  0  0  0
   13.0726   -4.6648   23.3394 O   0  0  0  0  0  0  0  0  0  0  0  0
    8.5955   -6.0705   17.3996 C   0  0  0  0  0  0  0  0  0  0  0  0
    4.6223   -8.3832   16.5030 C   0  0  0  0  0  0  0  0  0  0  0  0
   12.4690   -5.2624   19.9024 C   0  0  0  0  0  0  0  0  0  0  0  0
    3.2548   -9.9919   17.4189 C   0  0  0  0  0  0  0  0  0  0  0  0
   12.4767   -4.7393   22.1790 C   0  0  0  0  0  0  0  0  0  0  0  0
    7.8593   -5.3772   15.3569 N   0  0  0  0  0  0  0  0  0  0  0  0
    7.4412   -6.9038   16.9283 C   0  0  0  0  0  0  0  0  0  0  0  0
  1 21  4  0
  1 23  4  0
  2  5  1  0
  2 13  4  0
  2 16  4  0
  3  6  4  0
  3  7  4  0
  4 13  4  0
  4 19  4  0
  4 24  4  0
  6 23  4  0
  7 16  1  0
  7 21  4  0
  8 18  1  0
  9 20  4  0
  9 22  4  0
 10 17  1  0
 10 25  1  0
 11 16  4  0
 11 19  4  0
 12 15  4  0
 12 22  4  0
 14 24  4  0
 14 25  4  0
 15 17  4  0
 17 20  4  0
 18 23  1  0
 19 25  4  0
M  END
$$$$

 Created by Python create_sdf_string function

 25 28  0  0  0  0  0  0  0  0999 V2000
   13.1533   -5.2399   21.0682 C   0  0  0  0  0  0  0  0  0  0  0  0
   10.4729   -4.0295   17.6135 C   0  0  0  0  0  0  0  0  0  0  0  0
   10.4789   -4.3641   20.9564 C   0  0  0  0  0  0  0  0  0  0  0  0
    8.7421   -5.1412   16.3650 C   0  0  0  0  0  0  0  0  0  0  0  0
   11.4353   -2.9204   17.8044 C   0  0  0  0  0  0  0  0  0  0  0  0
   11.1529   -4.3028   22.1277 C   0  0  0  0  0  0  0  0  0  0  0  0
   11.1290   -4.8502   19.8052 C   0  0  0  0  0  0  0  0  0  0  0  0
   12.4329   -4.2159   24.4224 C   0  0  0  0  0  0  0  0  0  0  0  0
    3.4740   -9.0387   16.5022 C   0  0  0  0  0  0  0  0  0  0  0  0
    6.8384   -7.9290   17.5282 N   0  0  0  0  0  0  0  0  0  0  0  0
    9.4126   -5.9853   18.4899 C   0  0  0  0  0  0  0  0  0  0  0  0
    4.2064  -10.3242   18.3302 C   0  0  0  0  0  0  0  0  0  0  0  0
    9.6599   -4.1551   16.4796 N   0  0  0  0  0  0  0  0  0  0  0  0
    7.0644   -6.4612   15.7375 N   0  0  0  0  0  0  0  0  0  0  0  0
    5.3549   -9.6322   18.3190 C   0  0  0  0  0  0  0  0  0  0  0  0
   10.3704   -4.9638   18.6510 C   0  0  0  0  0  0  0  0  0  0  0  0
    5.5935   -8.6419   17.4234 C   0  0  0  0  0  0  0  0  0  0  0  0
   13.0726   -4.6648   23.3394 O   0  0  0  0  0  0  0  0  0  0  0  0
    8.5955   -6.0705   17.3996 C   0  0  0  0  0  0  0  0  0  0  0  0
    4.6223   -8.3832   16.5030 C   0  0  0  0  0  0  0  0  0  0  0  0
   12.4690   -5.2624   19.9024 C   0  0  0  0  0  0  0  0  0  0  0  0
    3.2548   -9.9919   17.4189 C   0  0  0  0  0  0  0  0  0  0  0  0
   12.4767   -4.7393   22.1790 C   0  0  0  0  0  0  0  0  0  0  0  0
    7.8593   -5.3772   15.3569 N   0  0  0  0  0  0  0  0  0  0  0  0
    7.4412   -6.9038   16.9283 C   0  0  0  0  0  0  0  0  0  0  0  0
  1 21  4  0
  1 23  4  0
  2  5  1  0
  2 13  4  0
  2 16  4  0
  3  6  4  0
  3  7  4  0
  4 13  4  0
  4 19  4  0
  4 24  4  0
  6 23  4  0
  7 16  1  0
  7 21  4  0
  8 18  1  0
  9 20  4  0
  9 22  4  0
 10 17  1  0
 10 25  1  0
 11 16  4  0
 11 19  4  0
 12 15  4  0
 12 22  4  0
 14 24  4  0
 14 25  4  0
 15 17  4  0
 17 20  4  0
 18 23  1  0
 19 25  4  0
M  END
$$$$

 Created by Python create_sdf_string function

 25 28  0  0  0  0  0  0  0  0999 V2000
   13.1533   -5.2399   21.0682 C   0  0  0  0  0  0  0  0  0  0  0  0
   10.4729   -4.0295   17.6135 C   0  0  0  0  0  0  0  0  0  0  0  0
   10.4789   -4.3641   20.9564 C   0  0  0  0  0  0  0  0  0  0  0  0
    8.7421   -5.1412   16.3650 C   0  0  0  0  0  0  0  0  0  0  0  0
   11.4353   -2.9204   17.8044 C   0  0  0  0  0  0  0  0  0  0  0  0
   11.1529   -4.3028   22.1277 C   0  0  0  0  0  0  0  0  0  0  0  0
   11.1290   -4.8502   19.8052 C   0  0  0  0  0  0  0  0  0  0  0  0
   12.4329   -4.2159   24.4224 C   0  0  0  0  0  0  0  0  0  0  0  0
    3.4740   -9.0387   16.5022 C   0  0  0  0  0  0  0  0  0  0  0  0
    6.8384   -7.9290   17.5282 N   0  0  0  0  0  0  0  0  0  0  0  0
    9.4126   -5.9853   18.4899 C   0  0  0  0  0  0  0  0  0  0  0  0
    4.2064  -10.3242   18.3302 C   0  0  0  0  0  0  0  0  0  0  0  0
    9.6599   -4.1551   16.4796 N   0  0  0  0  0  0  0  0  0  0  0  0
    7.0644   -6.4612   15.7375 N   0  0  0  0  0  0  0  0  0  0  0  0
    5.3549   -9.6322   18.3190 C   0  0  0  0  0  0  0  0  0  0  0  0
   10.3704   -4.9638   18.6510 C   0  0  0  0  0  0  0  0  0  0  0  0
    5.5935   -8.6419   17.4234 C   0  0  0  0  0  0  0  0  0  0  0  0
   13.0726   -4.6648   23.3394 O   0  0  0  0  0  0  0  0  0  0  0  0
    8.5955   -6.0705   17.3996 C   0  0  0  0  0  0  0  0  0  0  0  0
    4.6223   -8.3832   16.5030 C   0  0  0  0  0  0  0  0  0  0  0  0
   12.4690   -5.2624   19.9024 C   0  0  0  0  0  0  0  0  0  0  0  0
    3.2548   -9.9919   17.4189 C   0  0  0  0  0  0  0  0  0  0  0  0
   12.4767   -4.7393   22.1790 C   0  0  0  0  0  0  0  0  0  0  0  0
    7.8593   -5.3772   15.3569 N   0  0  0  0  0  0  0  0  0  0  0  0
    7.4412   -6.9038   16.9283 C   0  0  0  0  0  0  0  0  0  0  0  0
  1 21  4  0
  1 23  4  0
  2  5  1  0
  2 13  4  0
  2 16  4  0
  3  6  4  0
  3  7  4  0
  4 13  4  0
  4 19  4  0
  4 24  4  0
  6 23  4  0
  7 16  1  0
  7 21  4  0
  8 18  1  0
  9 20  4  0
  9 22  4  0
 10 17  1  0
 10 25  1  0
 11 16  4  0
 11 19  4  0
 12 15  4  0
 12 22  4  0
 14 24  4  0
 14 25  4  0
 15 17  4  0
 17 20  4  0
 18 23  1  0
 19 25  4  0
M  END
$$$$

 Created by Python create_sdf_string function

 25 28  0  0  0  0  0  0  0  0999 V2000
   13.1533   -5.2399   21.0682 C   0  0  0  0  0  0  0  0  0  0  0  0
   10.4729   -4.0295   17.6135 C   0  0  0  0  0  0  0  0  0  0  0  0
   10.4789   -4.3641   20.9564 C   0  0  0  0  0  0  0  0  0  0  0  0
    8.7421   -5.1412   16.3650 C   0  0  0  0  0  0  0  0  0  0  0  0
   11.4353   -2.9204   17.8044 C   0  0  0  0  0  0  0  0  0  0  0  0
   11.1529   -4.3028   22.1277 C   0  0  0  0  0  0  0  0  0  0  0  0
   11.1290   -4.8502   19.8052 C   0  0  0  0  0  0  0  0  0  0  0  0
   12.4329   -4.2159   24.4224 C   0  0  0  0  0  0  0  0  0  0  0  0
    3.4740   -9.0387   16.5022 C   0  0  0  0  0  0  0  0  0  0  0  0
    6.8384   -7.9290   17.5282 N   0  0  0  0  0  0  0  0  0  0  0  0
    9.4126   -5.9853   18.4899 C   0  0  0  0  0  0  0  0  0  0  0  0
    4.2064  -10.3242   18.3302 C   0  0  0  0  0  0  0  0  0  0  0  0
    9.6599   -4.1551   16.4796 N   0  0  0  0  0  0  0  0  0  0  0  0
    7.0644   -6.4612   15.7375 N   0  0  0  0  0  0  0  0  0  0  0  0
    5.3549   -9.6322   18.3190 C   0  0  0  0  0  0  0  0  0  0  0  0
   10.3704   -4.9638   18.6510 C   0  0  0  0  0  0  0  0  0  0  0  0
    5.5935   -8.6419   17.4234 C   0  0  0  0  0  0  0  0  0  0  0  0
   13.0726   -4.6648   23.3394 O   0  0  0  0  0  0  0  0  0  0  0  0
    8.5955   -6.0705   17.3996 C   0  0  0  0  0  0  0  0  0  0  0  0
    4.6223   -8.3832   16.5030 C   0  0  0  0  0  0  0  0  0  0  0  0
   12.4690   -5.2624   19.9024 C   0  0  0  0  0  0  0  0  0  0  0  0
    3.2548   -9.9919   17.4189 C   0  0  0  0  0  0  0  0  0  0  0  0
   12.4767   -4.7393   22.1790 C   0  0  0  0  0  0  0  0  0  0  0  0
    7.8593   -5.3772   15.3569 N   0  0  0  0  0  0  0  0  0  0  0  0
    7.4412   -6.9038   16.9283 C   0  0  0  0  0  0  0  0  0  0  0  0
  1 21  4  0
  1 23  4  0
  2  5  1  0
  2 13  4  0
  2 16  4  0
  3  6  4  0
  3  7  4  0
  4 13  4  0
  4 19  4  0
  4 24  4  0
  6 23  4  0
  7 16  1  0
  7 21  4  0
  8 18  1  0
  9 20  4  0
  9 22  4  0
 10 17  1  0
 10 25  1  0
 11 16  4  0
 11 19  4  0
 12 15  4  0
 12 22  4  0
 14 24  4  0
 14 25  4  0
 15 17  4  0
 17 20  4  0
 18 23  1  0
 19 25  4  0
M  END
$$$$

 Created by Python create_sdf_string function

 25 28  0  0  0  0  0  0  0  0999 V2000
   13.1533   -5.2399   21.0682 C   0  0  0  0  0  0  0  0  0  0  0  0
   10.4729   -4.0295   17.6135 C   0  0  0  0  0  0  0  0  0  0  0  0
   10.4789   -4.3641   20.9564 C   0  0  0  0  0  0  0  0  0  0  0  0
    8.7421   -5.1412   16.3650 C   0  0  0  0  0  0  0  0  0  0  0  0
   11.4353   -2.9204   17.8044 C   0  0  0  0  0  0  0  0  0  0  0  0
   11.1529   -4.3028   22.1277 C   0  0  0  0  0  0  0  0  0  0  0  0
   11.1290   -4.8502   19.8052 C   0  0  0  0  0  0  0  0  0  0  0  0
   12.4329   -4.2159   24.4224 C   0  0  0  0  0  0  0  0  0  0  0  0
    3.4740   -9.0387   16.5022 C   0  0  0  0  0  0  0  0  0  0  0  0
    6.8384   -7.9290   17.5282 N   0  0  0  0  0  0  0  0  0  0  0  0
    9.4126   -5.9853   18.4899 C   0  0  0  0  0  0  0  0  0  0  0  0
    4.2064  -10.3242   18.3302 C   0  0  0  0  0  0  0  0  0  0  0  0
    9.6599   -4.1551   16.4796 N   0  0  0  0  0  0  0  0  0  0  0  0
    7.0644   -6.4612   15.7375 N   0  0  0  0  0  0  0  0  0  0  0  0
    5.3549   -9.6322   18.3190 C   0  0  0  0  0  0  0  0  0  0  0  0
   10.3704   -4.9638   18.6510 C   0  0  0  0  0  0  0  0  0  0  0  0
    5.5935   -8.6419   17.4234 C   0  0  0  0  0  0  0  0  0  0  0  0
   13.0726   -4.6648   23.3394 O   0  0  0  0  0  0  0  0  0  0  0  0
    8.5955   -6.0705   17.3996 C   0  0  0  0  0  0  0  0  0  0  0  0
    4.6223   -8.3832   16.5030 C   0  0  0  0  0  0  0  0  0  0  0  0
   12.4690   -5.2624   19.9024 C   0  0  0  0  0  0  0  0  0  0  0  0
    3.2548   -9.9919   17.4189 C   0  0  0  0  0  0  0  0  0  0  0  0
   12.4767   -4.7393   22.1790 C   0  0  0  0  0  0  0  0  0  0  0  0
    7.8593   -5.3772   15.3569 N   0  0  0  0  0  0  0  0  0  0  0  0
    7.4412   -6.9038   16.9283 C   0  0  0  0  0  0  0  0  0  0  0  0
  1 21  4  0
  1 23  4  0
  2  5  1  0
  2 13  4  0
  2 16  4  0
  3  6  4  0
  3  7  4  0
  4 13  4  0
  4 19  4  0
  4 24  4  0
  6 23  4  0
  7 16  1  0
  7 21  4  0
  8 18  1  0
  9 20  4  0
  9 22  4  0
 10 17  1  0
 10 25  1  0
 11 16  4  0
 11 19  4  0
 12 15  4  0
 12 22  4  0
 14 24  4  0
 14 25  4  0
 15 17  4  0
 17 20  4  0
 18 23  1  0
 19 25  4  0
M  END
$$$$

 Created by Python create_sdf_string function

 25 28  0  0  0  0  0  0  0  0999 V2000
   13.1533   -5.2399   21.0682 C   0  0  0  0  0  0  0  0  0  0  0  0
   10.4729   -4.0295   17.6135 C   0  0  0  0  0  0  0  0  0  0  0  0
   10.4789   -4.3641   20.9564 C   0  0  0  0  0  0  0  0  0  0  0  0
    8.7421   -5.1412   16.3650 C   0  0  0  0  0  0  0  0  0  0  0  0
   11.4353   -2.9204   17.8044 C   0  0  0  0  0  0  0  0  0  0  0  0
   11.1529   -4.3028   22.1277 C   0  0  0  0  0  0  0  0  0  0  0  0
   11.1290   -4.8502   19.8052 C   0  0  0  0  0  0  0  0  0  0  0  0
   12.4329   -4.2159   24.4224 C   0  0  0  0  0  0  0  0  0  0  0  0
    3.4740   -9.0387   16.5022 C   0  0  0  0  0  0  0  0  0  0  0  0
    6.8384   -7.9290   17.5282 N   0  0  0  0  0  0  0  0  0  0  0  0
    9.4126   -5.9853   18.4899 C   0  0  0  0  0  0  0  0  0  0  0  0
    4.2064  -10.3242   18.3302 C   0  0  0  0  0  0  0  0  0  0  0  0
    9.6599   -4.1551   16.4796 N   0  0  0  0  0  0  0  0  0  0  0  0
    7.0644   -6.4612   15.7375 N   0  0  0  0  0  0  0  0  0  0  0  0
    5.3549   -9.6322   18.3190 C   0  0  0  0  0  0  0  0  0  0  0  0
   10.3704   -4.9638   18.6510 C   0  0  0  0  0  0  0  0  0  0  0  0
    5.5935   -8.6419   17.4234 C   0  0  0  0  0  0  0  0  0  0  0  0
   13.0726   -4.6648   23.3394 O   0  0  0  0  0  0  0  0  0  0  0  0
    8.5955   -6.0705   17.3996 C   0  0  0  0  0  0  0  0  0  0  0  0
    4.6223   -8.3832   16.5030 C   0  0  0  0  0  0  0  0  0  0  0  0
   12.4690   -5.2624   19.9024 C   0  0  0  0  0  0  0  0  0  0  0  0
    3.2548   -9.9919   17.4189 C   0  0  0  0  0  0  0  0  0  0  0  0
   12.4767   -4.7393   22.1790 C   0  0  0  0  0  0  0  0  0  0  0  0
    7.8593   -5.3772   15.3569 N   0  0  0  0  0  0  0  0  0  0  0  0
    7.4412   -6.9038   16.9283 C   0  0  0  0  0  0  0  0  0  0  0  0
  1 21  4  0
  1 23  4  0
  2  5  1  0
  2 13  4  0
  2 16  4  0
  3  6  4  0
  3  7  4  0
  4 13  4  0
  4 19  4  0
  4 24  4  0
  6 23  4  0
  7 16  1  0
  7 21  4  0
  8 18  1  0
  9 20  4  0
  9 22  4  0
 10 17  1  0
 10 25  1  0
 11 16  4  0
 11 19  4  0
 12 15  4  0
 12 22  4  0
 14 24  4  0
 14 25  4  0
 15 17  4  0
 17 20  4  0
 18 23  1  0
 19 25  4  0
M  END
$$$$

 Created by Python create_sdf_string function

 25 28  0  0  0  0  0  0  0  0999 V2000
   13.1533   -5.2399   21.0682 C   0  0  0  0  0  0  0  0  0  0  0  0
   10.4729   -4.0295   17.6135 C   0  0  0  0  0  0  0  0  0  0  0  0
   10.4789   -4.3641   20.9564 C   0  0  0  0  0  0  0  0  0  0  0  0
    8.7421   -5.1412   16.3650 C   0  0  0  0  0  0  0  0  0  0  0  0
   11.4353   -2.9204   17.8044 C   0  0  0  0  0  0  0  0  0  0  0  0
   11.1529   -4.3028   22.1277 C   0  0  0  0  0  0  0  0  0  0  0  0
   11.1290   -4.8502   19.8052 C   0  0  0  0  0  0  0  0  0  0  0  0
   12.4329   -4.2159   24.4224 C   0  0  0  0  0  0  0  0  0  0  0  0
    3.4740   -9.0387   16.5022 C   0  0  0  0  0  0  0  0  0  0  0  0
    6.8384   -7.9290   17.5282 N   0  0  0  0  0  0  0  0  0  0  0  0
    9.4126   -5.9853   18.4899 C   0  0  0  0  0  0  0  0  0  0  0  0
    4.2064  -10.3242   18.3302 C   0  0  0  0  0  0  0  0  0  0  0  0
    9.6599   -4.1551   16.4796 N   0  0  0  0  0  0  0  0  0  0  0  0
    7.0644   -6.4612   15.7375 N   0  0  0  0  0  0  0  0  0  0  0  0
    5.3549   -9.6322   18.3190 C   0  0  0  0  0  0  0  0  0  0  0  0
   10.3704   -4.9638   18.6510 C   0  0  0  0  0  0  0  0  0  0  0  0
    5.5935   -8.6419   17.4234 C   0  0  0  0  0  0  0  0  0  0  0  0
   13.0726   -4.6648   23.3394 O   0  0  0  0  0  0  0  0  0  0  0  0
    8.5955   -6.0705   17.3996 C   0  0  0  0  0  0  0  0  0  0  0  0
    4.6223   -8.3832   16.5030 C   0  0  0  0  0  0  0  0  0  0  0  0
   12.4690   -5.2624   19.9024 C   0  0  0  0  0  0  0  0  0  0  0  0
    3.2548   -9.9919   17.4189 C   0  0  0  0  0  0  0  0  0  0  0  0
   12.4767   -4.7393   22.1790 C   0  0  0  0  0  0  0  0  0  0  0  0
    7.8593   -5.3772   15.3569 N   0  0  0  0  0  0  0  0  0  0  0  0
    7.4412   -6.9038   16.9283 C   0  0  0  0  0  0  0  0  0  0  0  0
  1 21  4  0
  1 23  4  0
  2  5  1  0
  2 13  4  0
  2 16  4  0
  3  6  4  0
  3  7  4  0
  4 13  4  0
  4 19  4  0
  4 24  4  0
  6 23  4  0
  7 16  1  0
  7 21  4  0
  8 18  1  0
  9 20  4  0
  9 22  4  0
 10 17  1  0
 10 25  1  0
 11 16  4  0
 11 19  4  0
 12 15  4  0
 12 22  4  0
 14 24  4  0
 14 25  4  0
 15 17  4  0
 17 20  4  0
 18 23  1  0
 19 25  4  0
M  END
$$$$

 Created by Python create_sdf_string function

 25 28  0  0  0  0  0  0  0  0999 V2000
   13.1533   -5.2399   21.0682 C   0  0  0  0  0  0  0  0  0  0  0  0
   10.4729   -4.0295   17.6135 C   0  0  0  0  0  0  0  0  0  0  0  0
   10.4789   -4.3641   20.9564 C   0  0  0  0  0  0  0  0  0  0  0  0
    8.7421   -5.1412   16.3650 C   0  0  0  0  0  0  0  0  0  0  0  0
   11.4353   -2.9204   17.8044 C   0  0  0  0  0  0  0  0  0  0  0  0
   11.1529   -4.3028   22.1277 C   0  0  0  0  0  0  0  0  0  0  0  0
   11.1290   -4.8502   19.8052 C   0  0  0  0  0  0  0  0  0  0  0  0
   12.4329   -4.2159   24.4224 C   0  0  0  0  0  0  0  0  0  0  0  0
    3.4740   -9.0387   16.5022 C   0  0  0  0  0  0  0  0  0  0  0  0
    6.8384   -7.9290   17.5282 N   0  0  0  0  0  0  0  0  0  0  0  0
    9.4126   -5.9853   18.4899 C   0  0  0  0  0  0  0  0  0  0  0  0
    4.2064  -10.3242   18.3302 C   0  0  0  0  0  0  0  0  0  0  0  0
    9.6599   -4.1551   16.4796 N   0  0  0  0  0  0  0  0  0  0  0  0
    7.0644   -6.4612   15.7375 N   0  0  0  0  0  0  0  0  0  0  0  0
    5.3549   -9.6322   18.3190 C   0  0  0  0  0  0  0  0  0  0  0  0
   10.3704   -4.9638   18.6510 C   0  0  0  0  0  0  0  0  0  0  0  0
    5.5935   -8.6419   17.4234 C   0  0  0  0  0  0  0  0  0  0  0  0
   13.0726   -4.6648   23.3394 O   0  0  0  0  0  0  0  0  0  0  0  0
    8.5955   -6.0705   17.3996 C   0  0  0  0  0  0  0  0  0  0  0  0
    4.6223   -8.3832   16.5030 C   0  0  0  0  0  0  0  0  0  0  0  0
   12.4690   -5.2624   19.9024 C   0  0  0  0  0  0  0  0  0  0  0  0
    3.2548   -9.9919   17.4189 C   0  0  0  0  0  0  0  0  0  0  0  0
   12.4767   -4.7393   22.1790 C   0  0  0  0  0  0  0  0  0  0  0  0
    7.8593   -5.3772   15.3569 N   0  0  0  0  0  0  0  0  0  0  0  0
    7.4412   -6.9038   16.9283 C   0  0  0  0  0  0  0  0  0  0  0  0
  1 21  4  0
  1 23  4  0
  2  5  1  0
  2 13  4  0
  2 16  4  0
  3  6  4  0
  3  7  4  0
  4 13  4  0
  4 19  4  0
  4 24  4  0
  6 23  4  0
  7 16  1  0
  7 21  4  0
  8 18  1  0
  9 20  4  0
  9 22  4  0
 10 17  1  0
 10 25  1  0
 11 16  4  0
 11 19  4  0
 12 15  4  0
 12 22  4  0
 14 24  4  0
 14 25  4  0
 15 17  4  0
 17 20  4  0
 18 23  1  0
 19 25  4  0
M  END
$$$$

 Created by Python create_sdf_string function

 25 28  0  0  0  0  0  0  0  0999 V2000
   13.1533   -5.2399   21.0682 C   0  0  0  0  0  0  0  0  0  0  0  0
   10.4729   -4.0295   17.6135 C   0  0  0  0  0  0  0  0  0  0  0  0
   10.4789   -4.3641   20.9564 C   0  0  0  0  0  0  0  0  0  0  0  0
    8.7421   -5.1412   16.3650 C   0  0  0  0  0  0  0  0  0  0  0  0
   11.4353   -2.9204   17.8044 C   0  0  0  0  0  0  0  0  0  0  0  0
   11.1529   -4.3028   22.1277 C   0  0  0  0  0  0  0  0  0  0  0  0
   11.1290   -4.8502   19.8052 C   0  0  0  0  0  0  0  0  0  0  0  0
   12.4329   -4.2159   24.4224 C   0  0  0  0  0  0  0  0  0  0  0  0
    3.4740   -9.0387   16.5022 C   0  0  0  0  0  0  0  0  0  0  0  0
    6.8384   -7.9290   17.5282 N   0  0  0  0  0  0  0  0  0  0  0  0
    9.4126   -5.9853   18.4899 C   0  0  0  0  0  0  0  0  0  0  0  0
    4.2064  -10.3242   18.3302 C   0  0  0  0  0  0  0  0  0  0  0  0
    9.6599   -4.1551   16.4796 N   0  0  0  0  0  0  0  0  0  0  0  0
    7.0644   -6.4612   15.7375 N   0  0  0  0  0  0  0  0  0  0  0  0
    5.3549   -9.6322   18.3190 C   0  0  0  0  0  0  0  0  0  0  0  0
   10.3704   -4.9638   18.6510 C   0  0  0  0  0  0  0  0  0  0  0  0
    5.5935   -8.6419   17.4234 C   0  0  0  0  0  0  0  0  0  0  0  0
   13.0726   -4.6648   23.3394 O   0  0  0  0  0  0  0  0  0  0  0  0
    8.5955   -6.0705   17.3996 C   0  0  0  0  0  0  0  0  0  0  0  0
    4.6223   -8.3832   16.5030 C   0  0  0  0  0  0  0  0  0  0  0  0
   12.4690   -5.2624   19.9024 C   0  0  0  0  0  0  0  0  0  0  0  0
    3.2548   -9.9919   17.4189 C   0  0  0  0  0  0  0  0  0  0  0  0
   12.4767   -4.7393   22.1790 C   0  0  0  0  0  0  0  0  0  0  0  0
    7.8593   -5.3772   15.3569 N   0  0  0  0  0  0  0  0  0  0  0  0
    7.4412   -6.9038   16.9283 C   0  0  0  0  0  0  0  0  0  0  0  0
  1 21  4  0
  1 23  4  0
  2  5  1  0
  2 13  4  0
  2 16  4  0
  3  6  4  0
  3  7  4  0
  4 13  4  0
  4 19  4  0
  4 24  4  0
  6 23  4  0
  7 16  1  0
  7 21  4  0
  8 18  1  0
  9 20  4  0
  9 22  4  0
 10 17  1  0
 10 25  1  0
 11 16  4  0
 11 19  4  0
 12 15  4  0
 12 22  4  0
 14 24  4  0
 14 25  4  0
 15 17  4  0
 17 20  4  0
 18 23  1  0
 19 25  4  0
M  END
$$$$

 Created by Python create_sdf_string function

 25 28  0  0  0  0  0  0  0  0999 V2000
   13.1533   -5.2399   21.0682 C   0  0  0  0  0  0  0  0  0  0  0  0
   10.4729   -4.0295   17.6135 C   0  0  0  0  0  0  0  0  0  0  0  0
   10.4789   -4.3641   20.9564 C   0  0  0  0  0  0  0  0  0  0  0  0
    8.7421   -5.1412   16.3650 C   0  0  0  0  0  0  0  0  0  0  0  0
   11.4353   -2.9204   17.8044 C   0  0  0  0  0  0  0  0  0  0  0  0
   11.1529   -4.3028   22.1277 C   0  0  0  0  0  0  0  0  0  0  0  0
   11.1290   -4.8502   19.8052 C   0  0  0  0  0  0  0  0  0  0  0  0
   12.4329   -4.2159   24.4224 C   0  0  0  0  0  0  0  0  0  0  0  0
    3.4740   -9.0387   16.5022 C   0  0  0  0  0  0  0  0  0  0  0  0
    6.8384   -7.9290   17.5282 N   0  0  0  0  0  0  0  0  0  0  0  0
    9.4126   -5.9853   18.4899 C   0  0  0  0  0  0  0  0  0  0  0  0
    4.2064  -10.3242   18.3302 C   0  0  0  0  0  0  0  0  0  0  0  0
    9.6599   -4.1551   16.4796 N   0  0  0  0  0  0  0  0  0  0  0  0
    7.0644   -6.4612   15.7375 N   0  0  0  0  0  0  0  0  0  0  0  0
    5.3549   -9.6322   18.3190 C   0  0  0  0  0  0  0  0  0  0  0  0
   10.3704   -4.9638   18.6510 C   0  0  0  0  0  0  0  0  0  0  0  0
    5.5935   -8.6419   17.4234 C   0  0  0  0  0  0  0  0  0  0  0  0
   13.0726   -4.6648   23.3394 O   0  0  0  0  0  0  0  0  0  0  0  0
    8.5955   -6.0705   17.3996 C   0  0  0  0  0  0  0  0  0  0  0  0
    4.6223   -8.3832   16.5030 C   0  0  0  0  0  0  0  0  0  0  0  0
   12.4690   -5.2624   19.9024 C   0  0  0  0  0  0  0  0  0  0  0  0
    3.2548   -9.9919   17.4189 C   0  0  0  0  0  0  0  0  0  0  0  0
   12.4767   -4.7393   22.1790 C   0  0  0  0  0  0  0  0  0  0  0  0
    7.8593   -5.3772   15.3569 N   0  0  0  0  0  0  0  0  0  0  0  0
    7.4412   -6.9038   16.9283 C   0  0  0  0  0  0  0  0  0  0  0  0
  1 21  4  0
  1 23  4  0
  2  5  1  0
  2 13  4  0
  2 16  4  0
  3  6  4  0
  3  7  4  0
  4 13  4  0
  4 19  4  0
  4 24  4  0
  6 23  4  0
  7 16  1  0
  7 21  4  0
  8 18  1  0
  9 20  4  0
  9 22  4  0
 10 17  1  0
 10 25  1  0
 11 16  4  0
 11 19  4  0
 12 15  4  0
 12 22  4  0
 14 24  4  0
 14 25  4  0
 15 17  4  0
 17 20  4  0
 18 23  1  0
 19 25  4  0
M  END
$$$$

 Created by Python create_sdf_string function

 25 28  0  0  0  0  0  0  0  0999 V2000
   13.1533   -5.2399   21.0682 C   0  0  0  0  0  0  0  0  0  0  0  0
   10.4729   -4.0295   17.6135 C   0  0  0  0  0  0  0  0  0  0  0  0
   10.4789   -4.3641   20.9564 C   0  0  0  0  0  0  0  0  0  0  0  0
    8.7421   -5.1412   16.3650 C   0  0  0  0  0  0  0  0  0  0  0  0
   11.4353   -2.9204   17.8044 C   0  0  0  0  0  0  0  0  0  0  0  0
   11.1529   -4.3028   22.1277 C   0  0  0  0  0  0  0  0  0  0  0  0
   11.1290   -4.8502   19.8052 C   0  0  0  0  0  0  0  0  0  0  0  0
   12.4329   -4.2159   24.4224 C   0  0  0  0  0  0  0  0  0  0  0  0
    3.4740   -9.0387   16.5022 C   0  0  0  0  0  0  0  0  0  0  0  0
    6.8384   -7.9290   17.5282 N   0  0  0  0  0  0  0  0  0  0  0  0
    9.4126   -5.9853   18.4899 C   0  0  0  0  0  0  0  0  0  0  0  0
    4.2064  -10.3242   18.3302 C   0  0  0  0  0  0  0  0  0  0  0  0
    9.6599   -4.1551   16.4796 N   0  0  0  0  0  0  0  0  0  0  0  0
    7.0644   -6.4612   15.7375 N   0  0  0  0  0  0  0  0  0  0  0  0
    5.3549   -9.6322   18.3190 C   0  0  0  0  0  0  0  0  0  0  0  0
   10.3704   -4.9638   18.6510 C   0  0  0  0  0  0  0  0  0  0  0  0
    5.5935   -8.6419   17.4234 C   0  0  0  0  0  0  0  0  0  0  0  0
   13.0726   -4.6648   23.3394 O   0  0  0  0  0  0  0  0  0  0  0  0
    8.5955   -6.0705   17.3996 C   0  0  0  0  0  0  0  0  0  0  0  0
    4.6223   -8.3832   16.5030 C   0  0  0  0  0  0  0  0  0  0  0  0
   12.4690   -5.2624   19.9024 C   0  0  0  0  0  0  0  0  0  0  0  0
    3.2548   -9.9919   17.4189 C   0  0  0  0  0  0  0  0  0  0  0  0
   12.4767   -4.7393   22.1790 C   0  0  0  0  0  0  0  0  0  0  0  0
    7.8593   -5.3772   15.3569 N   0  0  0  0  0  0  0  0  0  0  0  0
    7.4412   -6.9038   16.9283 C   0  0  0  0  0  0  0  0  0  0  0  0
  1 21  4  0
  1 23  4  0
  2  5  1  0
  2 13  4  0
  2 16  4  0
  3  6  4  0
  3  7  4  0
  4 13  4  0
  4 19  4  0
  4 24  4  0
  6 23  4  0
  7 16  1  0
  7 21  4  0
  8 18  1  0
  9 20  4  0
  9 22  4  0
 10 17  1  0
 10 25  1  0
 11 16  4  0
 11 19  4  0
 12 15  4  0
 12 22  4  0
 14 24  4  0
 14 25  4  0
 15 17  4  0
 17 20  4  0
 18 23  1  0
 19 25  4  0
M  END
$$$$

 Created by Python create_sdf_string function

 25 28  0  0  0  0  0  0  0  0999 V2000
   13.1533   -5.2399   21.0682 C   0  0  0  0  0  0  0  0  0  0  0  0
   10.4729   -4.0295   17.6135 C   0  0  0  0  0  0  0  0  0  0  0  0
   10.4789   -4.3641   20.9564 C   0  0  0  0  0  0  0  0  0  0  0  0
    8.7421   -5.1412   16.3650 C   0  0  0  0  0  0  0  0  0  0  0  0
   11.4353   -2.9204   17.8044 C   0  0  0  0  0  0  0  0  0  0  0  0
   11.1529   -4.3028   22.1277 C   0  0  0  0  0  0  0  0  0  0  0  0
   11.1290   -4.8502   19.8052 C   0  0  0  0  0  0  0  0  0  0  0  0
   12.4329   -4.2159   24.4224 C   0  0  0  0  0  0  0  0  0  0  0  0
    3.4740   -9.0387   16.5022 C   0  0  0  0  0  0  0  0  0  0  0  0
    6.8384   -7.9290   17.5282 N   0  0  0  0  0  0  0  0  0  0  0  0
    9.4126   -5.9853   18.4899 C   0  0  0  0  0  0  0  0  0  0  0  0
    4.2064  -10.3242   18.3302 C   0  0  0  0  0  0  0  0  0  0  0  0
    9.6599   -4.1551   16.4796 N   0  0  0  0  0  0  0  0  0  0  0  0
    7.0644   -6.4612   15.7375 N   0  0  0  0  0  0  0  0  0  0  0  0
    5.3549   -9.6322   18.3190 C   0  0  0  0  0  0  0  0  0  0  0  0
   10.3704   -4.9638   18.6510 C   0  0  0  0  0  0  0  0  0  0  0  0
    5.5935   -8.6419   17.4234 C   0  0  0  0  0  0  0  0  0  0  0  0
   13.0726   -4.6648   23.3394 O   0  0  0  0  0  0  0  0  0  0  0  0
    8.5955   -6.0705   17.3996 C   0  0  0  0  0  0  0  0  0  0  0  0
    4.6223   -8.3832   16.5030 C   0  0  0  0  0  0  0  0  0  0  0  0
   12.4690   -5.2624   19.9024 C   0  0  0  0  0  0  0  0  0  0  0  0
    3.2548   -9.9919   17.4189 C   0  0  0  0  0  0  0  0  0  0  0  0
   12.4767   -4.7393   22.1790 C   0  0  0  0  0  0  0  0  0  0  0  0
    7.8593   -5.3772   15.3569 N   0  0  0  0  0  0  0  0  0  0  0  0
    7.4412   -6.9038   16.9283 C   0  0  0  0  0  0  0  0  0  0  0  0
  1 21  4  0
  1 23  4  0
  2  5  1  0
  2 13  4  0
  2 16  4  0
  3  6  4  0
  3  7  4  0
  4 13  4  0
  4 19  4  0
  4 24  4  0
  6 23  4  0
  7 16  1  0
  7 21  4  0
  8 18  1  0
  9 20  4  0
  9 22  4  0
 10 17  1  0
 10 25  1  0
 11 16  4  0
 11 19  4  0
 12 15  4  0
 12 22  4  0
 14 24  4  0
 14 25  4  0
 15 17  4  0
 17 20  4  0
 18 23  1  0
 19 25  4  0
M  END
$$$$

 Created by Python create_sdf_string function

 25 28  0  0  0  0  0  0  0  0999 V2000
   13.1533   -5.2399   21.0682 C   0  0  0  0  0  0  0  0  0  0  0  0
   10.4729   -4.0295   17.6135 C   0  0  0  0  0  0  0  0  0  0  0  0
   10.4789   -4.3641   20.9564 C   0  0  0  0  0  0  0  0  0  0  0  0
    8.7421   -5.1412   16.3650 C   0  0  0  0  0  0  0  0  0  0  0  0
   11.4353   -2.9204   17.8044 C   0  0  0  0  0  0  0  0  0  0  0  0
   11.1529   -4.3028   22.1277 C   0  0  0  0  0  0  0  0  0  0  0  0
   11.1290   -4.8502   19.8052 C   0  0  0  0  0  0  0  0  0  0  0  0
   12.4329   -4.2159   24.4224 C   0  0  0  0  0  0  0  0  0  0  0  0
    3.4740   -9.0387   16.5022 C   0  0  0  0  0  0  0  0  0  0  0  0
    6.8384   -7.9290   17.5282 N   0  0  0  0  0  0  0  0  0  0  0  0
    9.4126   -5.9853   18.4899 C   0  0  0  0  0  0  0  0  0  0  0  0
    4.2064  -10.3242   18.3302 C   0  0  0  0  0  0  0  0  0  0  0  0
    9.6599   -4.1551   16.4796 N   0  0  0  0  0  0  0  0  0  0  0  0
    7.0644   -6.4612   15.7375 N   0  0  0  0  0  0  0  0  0  0  0  0
    5.3549   -9.6322   18.3190 C   0  0  0  0  0  0  0  0  0  0  0  0
   10.3704   -4.9638   18.6510 C   0  0  0  0  0  0  0  0  0  0  0  0
    5.5935   -8.6419   17.4234 C   0  0  0  0  0  0  0  0  0  0  0  0
   13.0726   -4.6648   23.3394 O   0  0  0  0  0  0  0  0  0  0  0  0
    8.5955   -6.0705   17.3996 C   0  0  0  0  0  0  0  0  0  0  0  0
    4.6223   -8.3832   16.5030 C   0  0  0  0  0  0  0  0  0  0  0  0
   12.4690   -5.2624   19.9024 C   0  0  0  0  0  0  0  0  0  0  0  0
    3.2548   -9.9919   17.4189 C   0  0  0  0  0  0  0  0  0  0  0  0
   12.4767   -4.7393   22.1790 C   0  0  0  0  0  0  0  0  0  0  0  0
    7.8593   -5.3772   15.3569 N   0  0  0  0  0  0  0  0  0  0  0  0
    7.4412   -6.9038   16.9283 C   0  0  0  0  0  0  0  0  0  0  0  0
  1 21  4  0
  1 23  4  0
  2  5  1  0
  2 13  4  0
  2 16  4  0
  3  6  4  0
  3  7  4  0
  4 13  4  0
  4 19  4  0
  4 24  4  0
  6 23  4  0
  7 16  1  0
  7 21  4  0
  8 18  1  0
  9 20  4  0
  9 22  4  0
 10 17  1  0
 10 25  1  0
 11 16  4  0
 11 19  4  0
 12 15  4  0
 12 22  4  0
 14 24  4  0
 14 25  4  0
 15 17  4  0
 17 20  4  0
 18 23  1  0
 19 25  4  0
M  END
$$$$

 Created by Python create_sdf_string function

 25 28  0  0  0  0  0  0  0  0999 V2000
   13.1533   -5.2399   21.0682 C   0  0  0  0  0  0  0  0  0  0  0  0
   10.4729   -4.0295   17.6135 C   0  0  0  0  0  0  0  0  0  0  0  0
   10.4789   -4.3641   20.9564 C   0  0  0  0  0  0  0  0  0  0  0  0
    8.7421   -5.1412   16.3650 C   0  0  0  0  0  0  0  0  0  0  0  0
   11.4353   -2.9204   17.8044 C   0  0  0  0  0  0  0  0  0  0  0  0
   11.1529   -4.3028   22.1277 C   0  0  0  0  0  0  0  0  0  0  0  0
   11.1290   -4.8502   19.8052 C   0  0  0  0  0  0  0  0  0  0  0  0
   12.4329   -4.2159   24.4224 C   0  0  0  0  0  0  0  0  0  0  0  0
    3.4740   -9.0387   16.5022 C   0  0  0  0  0  0  0  0  0  0  0  0
    6.8384   -7.9290   17.5282 N   0  0  0  0  0  0  0  0  0  0  0  0
    9.4126   -5.9853   18.4899 C   0  0  0  0  0  0  0  0  0  0  0  0
    4.2064  -10.3242   18.3302 C   0  0  0  0  0  0  0  0  0  0  0  0
    9.6599   -4.1551   16.4796 N   0  0  0  0  0  0  0  0  0  0  0  0
    7.0644   -6.4612   15.7375 N   0  0  0  0  0  0  0  0  0  0  0  0
    5.3549   -9.6322   18.3190 C   0  0  0  0  0  0  0  0  0  0  0  0
   10.3704   -4.9638   18.6510 C   0  0  0  0  0  0  0  0  0  0  0  0
    5.5935   -8.6419   17.4234 C   0  0  0  0  0  0  0  0  0  0  0  0
   13.0726   -4.6648   23.3394 O   0  0  0  0  0  0  0  0  0  0  0  0
    8.5955   -6.0705   17.3996 C   0  0  0  0  0  0  0  0  0  0  0  0
    4.6223   -8.3832   16.5030 C   0  0  0  0  0  0  0  0  0  0  0  0
   12.4690   -5.2624   19.9024 C   0  0  0  0  0  0  0  0  0  0  0  0
    3.2548   -9.9919   17.4189 C   0  0  0  0  0  0  0  0  0  0  0  0
   12.4767   -4.7393   22.1790 C   0  0  0  0  0  0  0  0  0  0  0  0
    7.8593   -5.3772   15.3569 N   0  0  0  0  0  0  0  0  0  0  0  0
    7.4412   -6.9038   16.9283 C   0  0  0  0  0  0  0  0  0  0  0  0
  1 21  4  0
  1 23  4  0
  2  5  1  0
  2 13  4  0
  2 16  4  0
  3  6  4  0
  3  7  4  0
  4 13  4  0
  4 19  4  0
  4 24  4  0
  6 23  4  0
  7 16  1  0
  7 21  4  0
  8 18  1  0
  9 20  4  0
  9 22  4  0
 10 17  1  0
 10 25  1  0
 11 16  4  0
 11 19  4  0
 12 15  4  0
 12 22  4  0
 14 24  4  0
 14 25  4  0
 15 17  4  0
 17 20  4  0
 18 23  1  0
 19 25  4  0
M  END
$$$$

 Created by Python create_sdf_string function

 25 28  0  0  0  0  0  0  0  0999 V2000
   13.1533   -5.2399   21.0682 C   0  0  0  0  0  0  0  0  0  0  0  0
   10.4729   -4.0295   17.6135 C   0  0  0  0  0  0  0  0  0  0  0  0
   10.4789   -4.3641   20.9564 C   0  0  0  0  0  0  0  0  0  0  0  0
    8.7421   -5.1412   16.3650 C   0  0  0  0  0  0  0  0  0  0  0  0
   11.4353   -2.9204   17.8044 C   0  0  0  0  0  0  0  0  0  0  0  0
   11.1529   -4.3028   22.1277 C   0  0  0  0  0  0  0  0  0  0  0  0
   11.1290   -4.8502   19.8052 C   0  0  0  0  0  0  0  0  0  0  0  0
   12.4329   -4.2159   24.4224 C   0  0  0  0  0  0  0  0  0  0  0  0
    3.4740   -9.0387   16.5022 C   0  0  0  0  0  0  0  0  0  0  0  0
    6.8384   -7.9290   17.5282 N   0  0  0  0  0  0  0  0  0  0  0  0
    9.4126   -5.9853   18.4899 C   0  0  0  0  0  0  0  0  0  0  0  0
    4.2064  -10.3242   18.3302 C   0  0  0  0  0  0  0  0  0  0  0  0
    9.6599   -4.1551   16.4796 N   0  0  0  0  0  0  0  0  0  0  0  0
    7.0644   -6.4612   15.7375 N   0  0  0  0  0  0  0  0  0  0  0  0
    5.3549   -9.6322   18.3190 C   0  0  0  0  0  0  0  0  0  0  0  0
   10.3704   -4.9638   18.6510 C   0  0  0  0  0  0  0  0  0  0  0  0
    5.5935   -8.6419   17.4234 C   0  0  0  0  0  0  0  0  0  0  0  0
   13.0726   -4.6648   23.3394 O   0  0  0  0  0  0  0  0  0  0  0  0
    8.5955   -6.0705   17.3996 C   0  0  0  0  0  0  0  0  0  0  0  0
    4.6223   -8.3832   16.5030 C   0  0  0  0  0  0  0  0  0  0  0  0
   12.4690   -5.2624   19.9024 C   0  0  0  0  0  0  0  0  0  0  0  0
    3.2548   -9.9919   17.4189 C   0  0  0  0  0  0  0  0  0  0  0  0
   12.4767   -4.7393   22.1790 C   0  0  0  0  0  0  0  0  0  0  0  0
    7.8593   -5.3772   15.3569 N   0  0  0  0  0  0  0  0  0  0  0  0
    7.4412   -6.9038   16.9283 C   0  0  0  0  0  0  0  0  0  0  0  0
  1 21  4  0
  1 23  4  0
  2  5  1  0
  2 13  4  0
  2 16  4  0
  3  6  4  0
  3  7  4  0
  4 13  4  0
  4 19  4  0
  4 24  4  0
  6 23  4  0
  7 16  1  0
  7 21  4  0
  8 18  1  0
  9 20  4  0
  9 22  4  0
 10 17  1  0
 10 25  1  0
 11 16  4  0
 11 19  4  0
 12 15  4  0
 12 22  4  0
 14 24  4  0
 14 25  4  0
 15 17  4  0
 17 20  4  0
 18 23  1  0
 19 25  4  0
M  END
$$$$

 Created by Python create_sdf_string function

 25 28  0  0  0  0  0  0  0  0999 V2000
   13.1533   -5.2399   21.0682 C   0  0  0  0  0  0  0  0  0  0  0  0
   10.4729   -4.0295   17.6135 C   0  0  0  0  0  0  0  0  0  0  0  0
   10.4789   -4.3641   20.9564 C   0  0  0  0  0  0  0  0  0  0  0  0
    8.7421   -5.1412   16.3650 C   0  0  0  0  0  0  0  0  0  0  0  0
   11.4353   -2.9204   17.8044 C   0  0  0  0  0  0  0  0  0  0  0  0
   11.1529   -4.3028   22.1277 C   0  0  0  0  0  0  0  0  0  0  0  0
   11.1290   -4.8502   19.8052 C   0  0  0  0  0  0  0  0  0  0  0  0
   12.4329   -4.2159   24.4224 C   0  0  0  0  0  0  0  0  0  0  0  0
    3.4740   -9.0387   16.5022 C   0  0  0  0  0  0  0  0  0  0  0  0
    6.8384   -7.9290   17.5282 N   0  0  0  0  0  0  0  0  0  0  0  0
    9.4126   -5.9853   18.4899 C   0  0  0  0  0  0  0  0  0  0  0  0
    4.2064  -10.3242   18.3302 C   0  0  0  0  0  0  0  0  0  0  0  0
    9.6599   -4.1551   16.4796 N   0  0  0  0  0  0  0  0  0  0  0  0
    7.0644   -6.4612   15.7375 N   0  0  0  0  0  0  0  0  0  0  0  0
    5.3549   -9.6322   18.3190 C   0  0  0  0  0  0  0  0  0  0  0  0
   10.3704   -4.9638   18.6510 C   0  0  0  0  0  0  0  0  0  0  0  0
    5.5935   -8.6419   17.4234 C   0  0  0  0  0  0  0  0  0  0  0  0
   13.0726   -4.6648   23.3394 O   0  0  0  0  0  0  0  0  0  0  0  0
    8.5955   -6.0705   17.3996 C   0  0  0  0  0  0  0  0  0  0  0  0
    4.6223   -8.3832   16.5030 C   0  0  0  0  0  0  0  0  0  0  0  0
   12.4690   -5.2624   19.9024 C   0  0  0  0  0  0  0  0  0  0  0  0
    3.2548   -9.9919   17.4189 C   0  0  0  0  0  0  0  0  0  0  0  0
   12.4767   -4.7393   22.1790 C   0  0  0  0  0  0  0  0  0  0  0  0
    7.8593   -5.3772   15.3569 N   0  0  0  0  0  0  0  0  0  0  0  0
    7.4412   -6.9038   16.9283 C   0  0  0  0  0  0  0  0  0  0  0  0
  1 21  4  0
  1 23  4  0
  2  5  1  0
  2 13  4  0
  2 16  4  0
  3  6  4  0
  3  7  4  0
  4 13  4  0
  4 19  4  0
  4 24  4  0
  6 23  4  0
  7 16  1  0
  7 21  4  0
  8 18  1  0
  9 20  4  0
  9 22  4  0
 10 17  1  0
 10 25  1  0
 11 16  4  0
 11 19  4  0
 12 15  4  0
 12 22  4  0
 14 24  4  0
 14 25  4  0
 15 17  4  0
 17 20  4  0
 18 23  1  0
 19 25  4  0
M  END
$$$$

 Created by Python create_sdf_string function

 25 28  0  0  0  0  0  0  0  0999 V2000
   13.1533   -5.2399   21.0682 C   0  0  0  0  0  0  0  0  0  0  0  0
   10.4729   -4.0295   17.6135 C   0  0  0  0  0  0  0  0  0  0  0  0
   10.4789   -4.3641   20.9564 C   0  0  0  0  0  0  0  0  0  0  0  0
    8.7421   -5.1412   16.3650 C   0  0  0  0  0  0  0  0  0  0  0  0
   11.4353   -2.9204   17.8044 C   0  0  0  0  0  0  0  0  0  0  0  0
   11.1529   -4.3028   22.1277 C   0  0  0  0  0  0  0  0  0  0  0  0
   11.1290   -4.8502   19.8052 C   0  0  0  0  0  0  0  0  0  0  0  0
   12.4329   -4.2159   24.4224 C   0  0  0  0  0  0  0  0  0  0  0  0
    3.4740   -9.0387   16.5022 C   0  0  0  0  0  0  0  0  0  0  0  0
    6.8384   -7.9290   17.5282 N   0  0  0  0  0  0  0  0  0  0  0  0
    9.4126   -5.9853   18.4899 C   0  0  0  0  0  0  0  0  0  0  0  0
    4.2064  -10.3242   18.3302 C   0  0  0  0  0  0  0  0  0  0  0  0
    9.6599   -4.1551   16.4796 N   0  0  0  0  0  0  0  0  0  0  0  0
    7.0644   -6.4612   15.7375 N   0  0  0  0  0  0  0  0  0  0  0  0
    5.3549   -9.6322   18.3190 C   0  0  0  0  0  0  0  0  0  0  0  0
   10.3704   -4.9638   18.6510 C   0  0  0  0  0  0  0  0  0  0  0  0
    5.5935   -8.6419   17.4234 C   0  0  0  0  0  0  0  0  0  0  0  0
   13.0726   -4.6648   23.3394 O   0  0  0  0  0  0  0  0  0  0  0  0
    8.5955   -6.0705   17.3996 C   0  0  0  0  0  0  0  0  0  0  0  0
    4.6223   -8.3832   16.5030 C   0  0  0  0  0  0  0  0  0  0  0  0
   12.4690   -5.2624   19.9024 C   0  0  0  0  0  0  0  0  0  0  0  0
    3.2548   -9.9919   17.4189 C   0  0  0  0  0  0  0  0  0  0  0  0
   12.4767   -4.7393   22.1790 C   0  0  0  0  0  0  0  0  0  0  0  0
    7.8593   -5.3772   15.3569 N   0  0  0  0  0  0  0  0  0  0  0  0
    7.4412   -6.9038   16.9283 C   0  0  0  0  0  0  0  0  0  0  0  0
  1 21  4  0
  1 23  4  0
  2  5  1  0
  2 13  4  0
  2 16  4  0
  3  6  4  0
  3  7  4  0
  4 13  4  0
  4 19  4  0
  4 24  4  0
  6 23  4  0
  7 16  1  0
  7 21  4  0
  8 18  1  0
  9 20  4  0
  9 22  4  0
 10 17  1  0
 10 25  1  0
 11 16  4  0
 11 19  4  0
 12 15  4  0
 12 22  4  0
 14 24  4  0
 14 25  4  0
 15 17  4  0
 17 20  4  0
 18 23  1  0
 19 25  4  0
M  END
$$$$

 Created by Python create_sdf_string function

 25 28  0  0  0  0  0  0  0  0999 V2000
   13.1533   -5.2399   21.0682 C   0  0  0  0  0  0  0  0  0  0  0  0
   10.4729   -4.0295   17.6135 C   0  0  0  0  0  0  0  0  0  0  0  0
   10.4789   -4.3641   20.9564 C   0  0  0  0  0  0  0  0  0  0  0  0
    8.7421   -5.1412   16.3650 C   0  0  0  0  0  0  0  0  0  0  0  0
   11.4353   -2.9204   17.8044 C   0  0  0  0  0  0  0  0  0  0  0  0
   11.1529   -4.3028   22.1277 C   0  0  0  0  0  0  0  0  0  0  0  0
   11.1290   -4.8502   19.8052 C   0  0  0  0  0  0  0  0  0  0  0  0
   12.4329   -4.2159   24.4224 C   0  0  0  0  0  0  0  0  0  0  0  0
    3.4740   -9.0387   16.5022 C   0  0  0  0  0  0  0  0  0  0  0  0
    6.8384   -7.9290   17.5282 N   0  0  0  0  0  0  0  0  0  0  0  0
    9.4126   -5.9853   18.4899 C   0  0  0  0  0  0  0  0  0  0  0  0
    4.2064  -10.3242   18.3302 C   0  0  0  0  0  0  0  0  0  0  0  0
    9.6599   -4.1551   16.4796 N   0  0  0  0  0  0  0  0  0  0  0  0
    7.0644   -6.4612   15.7375 N   0  0  0  0  0  0  0  0  0  0  0  0
    5.3549   -9.6322   18.3190 C   0  0  0  0  0  0  0  0  0  0  0  0
   10.3704   -4.9638   18.6510 C   0  0  0  0  0  0  0  0  0  0  0  0
    5.5935   -8.6419   17.4234 C   0  0  0  0  0  0  0  0  0  0  0  0
   13.0726   -4.6648   23.3394 O   0  0  0  0  0  0  0  0  0  0  0  0
    8.5955   -6.0705   17.3996 C   0  0  0  0  0  0  0  0  0  0  0  0
    4.6223   -8.3832   16.5030 C   0  0  0  0  0  0  0  0  0  0  0  0
   12.4690   -5.2624   19.9024 C   0  0  0  0  0  0  0  0  0  0  0  0
    3.2548   -9.9919   17.4189 C   0  0  0  0  0  0  0  0  0  0  0  0
   12.4767   -4.7393   22.1790 C   0  0  0  0  0  0  0  0  0  0  0  0
    7.8593   -5.3772   15.3569 N   0  0  0  0  0  0  0  0  0  0  0  0
    7.4412   -6.9038   16.9283 C   0  0  0  0  0  0  0  0  0  0  0  0
  1 21  4  0
  1 23  4  0
  2  5  1  0
  2 13  4  0
  2 16  4  0
  3  6  4  0
  3  7  4  0
  4 13  4  0
  4 19  4  0
  4 24  4  0
  6 23  4  0
  7 16  1  0
  7 21  4  0
  8 18  1  0
  9 20  4  0
  9 22  4  0
 10 17  1  0
 10 25  1  0
 11 16  4  0
 11 19  4  0
 12 15  4  0
 12 22  4  0
 14 24  4  0
 14 25  4  0
 15 17  4  0
 17 20  4  0
 18 23  1  0
 19 25  4  0
M  END
$$$$

 Created by Python create_sdf_string function

 25 28  0  0  0  0  0  0  0  0999 V2000
   13.1533   -5.2399   21.0682 C   0  0  0  0  0  0  0  0  0  0  0  0
   10.4729   -4.0295   17.6135 C   0  0  0  0  0  0  0  0  0  0  0  0
   10.4789   -4.3641   20.9564 C   0  0  0  0  0  0  0  0  0  0  0  0
    8.7421   -5.1412   16.3650 C   0  0  0  0  0  0  0  0  0  0  0  0
   11.4353   -2.9204   17.8044 C   0  0  0  0  0  0  0  0  0  0  0  0
   11.1529   -4.3028   22.1277 C   0  0  0  0  0  0  0  0  0  0  0  0
   11.1290   -4.8502   19.8052 C   0  0  0  0  0  0  0  0  0  0  0  0
   12.4329   -4.2159   24.4224 C   0  0  0  0  0  0  0  0  0  0  0  0
    3.4740   -9.0387   16.5022 C   0  0  0  0  0  0  0  0  0  0  0  0
    6.8384   -7.9290   17.5282 N   0  0  0  0  0  0  0  0  0  0  0  0
    9.4126   -5.9853   18.4899 C   0  0  0  0  0  0  0  0  0  0  0  0
    4.2064  -10.3242   18.3302 C   0  0  0  0  0  0  0  0  0  0  0  0
    9.6599   -4.1551   16.4796 N   0  0  0  0  0  0  0  0  0  0  0  0
    7.0644   -6.4612   15.7375 N   0  0  0  0  0  0  0  0  0  0  0  0
    5.3549   -9.6322   18.3190 C   0  0  0  0  0  0  0  0  0  0  0  0
   10.3704   -4.9638   18.6510 C   0  0  0  0  0  0  0  0  0  0  0  0
    5.5935   -8.6419   17.4234 C   0  0  0  0  0  0  0  0  0  0  0  0
   13.0726   -4.6648   23.3394 O   0  0  0  0  0  0  0  0  0  0  0  0
    8.5955   -6.0705   17.3996 C   0  0  0  0  0  0  0  0  0  0  0  0
    4.6223   -8.3832   16.5030 C   0  0  0  0  0  0  0  0  0  0  0  0
   12.4690   -5.2624   19.9024 C   0  0  0  0  0  0  0  0  0  0  0  0
    3.2548   -9.9919   17.4189 C   0  0  0  0  0  0  0  0  0  0  0  0
   12.4767   -4.7393   22.1790 C   0  0  0  0  0  0  0  0  0  0  0  0
    7.8593   -5.3772   15.3569 N   0  0  0  0  0  0  0  0  0  0  0  0
    7.4412   -6.9038   16.9283 C   0  0  0  0  0  0  0  0  0  0  0  0
  1 21  4  0
  1 23  4  0
  2  5  1  0
  2 13  4  0
  2 16  4  0
  3  6  4  0
  3  7  4  0
  4 13  4  0
  4 19  4  0
  4 24  4  0
  6 23  4  0
  7 16  1  0
  7 21  4  0
  8 18  1  0
  9 20  4  0
  9 22  4  0
 10 17  1  0
 10 25  1  0
 11 16  4  0
 11 19  4  0
 12 15  4  0
 12 22  4  0
 14 24  4  0
 14 25  4  0
 15 17  4  0
 17 20  4  0
 18 23  1  0
 19 25  4  0
M  END
$$$$

 Created by Python create_sdf_string function

 25 28  0  0  0  0  0  0  0  0999 V2000
   13.1533   -5.2399   21.0682 C   0  0  0  0  0  0  0  0  0  0  0  0
   10.4729   -4.0295   17.6135 C   0  0  0  0  0  0  0  0  0  0  0  0
   10.4789   -4.3641   20.9564 C   0  0  0  0  0  0  0  0  0  0  0  0
    8.7421   -5.1412   16.3650 C   0  0  0  0  0  0  0  0  0  0  0  0
   11.4353   -2.9204   17.8044 C   0  0  0  0  0  0  0  0  0  0  0  0
   11.1529   -4.3028   22.1277 C   0  0  0  0  0  0  0  0  0  0  0  0
   11.1290   -4.8502   19.8052 C   0  0  0  0  0  0  0  0  0  0  0  0
   12.4329   -4.2159   24.4224 C   0  0  0  0  0  0  0  0  0  0  0  0
    3.4740   -9.0387   16.5022 C   0  0  0  0  0  0  0  0  0  0  0  0
    6.8384   -7.9290   17.5282 N   0  0  0  0  0  0  0  0  0  0  0  0
    9.4126   -5.9853   18.4899 C   0  0  0  0  0  0  0  0  0  0  0  0
    4.2064  -10.3242   18.3302 C   0  0  0  0  0  0  0  0  0  0  0  0
    9.6599   -4.1551   16.4796 N   0  0  0  0  0  0  0  0  0  0  0  0
    7.0644   -6.4612   15.7375 N   0  0  0  0  0  0  0  0  0  0  0  0
    5.3549   -9.6322   18.3190 C   0  0  0  0  0  0  0  0  0  0  0  0
   10.3704   -4.9638   18.6510 C   0  0  0  0  0  0  0  0  0  0  0  0
    5.5935   -8.6419   17.4234 C   0  0  0  0  0  0  0  0  0  0  0  0
   13.0726   -4.6648   23.3394 O   0  0  0  0  0  0  0  0  0  0  0  0
    8.5955   -6.0705   17.3996 C   0  0  0  0  0  0  0  0  0  0  0  0
    4.6223   -8.3832   16.5030 C   0  0  0  0  0  0  0  0  0  0  0  0
   12.4690   -5.2624   19.9024 C   0  0  0  0  0  0  0  0  0  0  0  0
    3.2548   -9.9919   17.4189 C   0  0  0  0  0  0  0  0  0  0  0  0
   12.4767   -4.7393   22.1790 C   0  0  0  0  0  0  0  0  0  0  0  0
    7.8593   -5.3772   15.3569 N   0  0  0  0  0  0  0  0  0  0  0  0
    7.4412   -6.9038   16.9283 C   0  0  0  0  0  0  0  0  0  0  0  0
  1 21  4  0
  1 23  4  0
  2  5  1  0
  2 13  4  0
  2 16  4  0
  3  6  4  0
  3  7  4  0
  4 13  4  0
  4 19  4  0
  4 24  4  0
  6 23  4  0
  7 16  1  0
  7 21  4  0
  8 18  1  0
  9 20  4  0
  9 22  4  0
 10 17  1  0
 10 25  1  0
 11 16  4  0
 11 19  4  0
 12 15  4  0
 12 22  4  0
 14 24  4  0
 14 25  4  0
 15 17  4  0
 17 20  4  0
 18 23  1  0
 19 25  4  0
M  END
$$$$

 Created by Python create_sdf_string function

 25 28  0  0  0  0  0  0  0  0999 V2000
   13.1533   -5.2399   21.0682 C   0  0  0  0  0  0  0  0  0  0  0  0
   10.4729   -4.0295   17.6135 C   0  0  0  0  0  0  0  0  0  0  0  0
   10.4789   -4.3641   20.9564 C   0  0  0  0  0  0  0  0  0  0  0  0
    8.7421   -5.1412   16.3650 C   0  0  0  0  0  0  0  0  0  0  0  0
   11.4353   -2.9204   17.8044 C   0  0  0  0  0  0  0  0  0  0  0  0
   11.1529   -4.3028   22.1277 C   0  0  0  0  0  0  0  0  0  0  0  0
   11.1290   -4.8502   19.8052 C   0  0  0  0  0  0  0  0  0  0  0  0
   12.4329   -4.2159   24.4224 C   0  0  0  0  0  0  0  0  0  0  0  0
    3.4740   -9.0387   16.5022 C   0  0  0  0  0  0  0  0  0  0  0  0
    6.8384   -7.9290   17.5282 N   0  0  0  0  0  0  0  0  0  0  0  0
    9.4126   -5.9853   18.4899 C   0  0  0  0  0  0  0  0  0  0  0  0
    4.2064  -10.3242   18.3302 C   0  0  0  0  0  0  0  0  0  0  0  0
    9.6599   -4.1551   16.4796 N   0  0  0  0  0  0  0  0  0  0  0  0
    7.0644   -6.4612   15.7375 N   0  0  0  0  0  0  0  0  0  0  0  0
    5.3549   -9.6322   18.3190 C   0  0  0  0  0  0  0  0  0  0  0  0
   10.3704   -4.9638   18.6510 C   0  0  0  0  0  0  0  0  0  0  0  0
    5.5935   -8.6419   17.4234 C   0  0  0  0  0  0  0  0  0  0  0  0
   13.0726   -4.6648   23.3394 O   0  0  0  0  0  0  0  0  0  0  0  0
    8.5955   -6.0705   17.3996 C   0  0  0  0  0  0  0  0  0  0  0  0
    4.6223   -8.3832   16.5030 C   0  0  0  0  0  0  0  0  0  0  0  0
   12.4690   -5.2624   19.9024 C   0  0  0  0  0  0  0  0  0  0  0  0
    3.2548   -9.9919   17.4189 C   0  0  0  0  0  0  0  0  0  0  0  0
   12.4767   -4.7393   22.1790 C   0  0  0  0  0  0  0  0  0  0  0  0
    7.8593   -5.3772   15.3569 N   0  0  0  0  0  0  0  0  0  0  0  0
    7.4412   -6.9038   16.9283 C   0  0  0  0  0  0  0  0  0  0  0  0
  1 21  4  0
  1 23  4  0
  2  5  1  0
  2 13  4  0
  2 16  4  0
  3  6  4  0
  3  7  4  0
  4 13  4  0
  4 19  4  0
  4 24  4  0
  6 23  4  0
  7 16  1  0
  7 21  4  0
  8 18  1  0
  9 20  4  0
  9 22  4  0
 10 17  1  0
 10 25  1  0
 11 16  4  0
 11 19  4  0
 12 15  4  0
 12 22  4  0
 14 24  4  0
 14 25  4  0
 15 17  4  0
 17 20  4  0
 18 23  1  0
 19 25  4  0
M  END
$$$$

 Created by Python create_sdf_string function

 25 28  0  0  0  0  0  0  0  0999 V2000
   13.1533   -5.2399   21.0682 C   0  0  0  0  0  0  0  0  0  0  0  0
   10.4729   -4.0295   17.6135 C   0  0  0  0  0  0  0  0  0  0  0  0
   10.4789   -4.3641   20.9564 C   0  0  0  0  0  0  0  0  0  0  0  0
    8.7421   -5.1412   16.3650 C   0  0  0  0  0  0  0  0  0  0  0  0
   11.4353   -2.9204   17.8044 C   0  0  0  0  0  0  0  0  0  0  0  0
   11.1529   -4.3028   22.1277 C   0  0  0  0  0  0  0  0  0  0  0  0
   11.1290   -4.8502   19.8052 C   0  0  0  0  0  0  0  0  0  0  0  0
   12.4329   -4.2159   24.4224 C   0  0  0  0  0  0  0  0  0  0  0  0
    3.4740   -9.0387   16.5022 C   0  0  0  0  0  0  0  0  0  0  0  0
    6.8384   -7.9290   17.5282 N   0  0  0  0  0  0  0  0  0  0  0  0
    9.4126   -5.9853   18.4899 C   0  0  0  0  0  0  0  0  0  0  0  0
    4.2064  -10.3242   18.3302 C   0  0  0  0  0  0  0  0  0  0  0  0
    9.6599   -4.1551   16.4796 N   0  0  0  0  0  0  0  0  0  0  0  0
    7.0644   -6.4612   15.7375 N   0  0  0  0  0  0  0  0  0  0  0  0
    5.3549   -9.6322   18.3190 C   0  0  0  0  0  0  0  0  0  0  0  0
   10.3704   -4.9638   18.6510 C   0  0  0  0  0  0  0  0  0  0  0  0
    5.5935   -8.6419   17.4234 C   0  0  0  0  0  0  0  0  0  0  0  0
   13.0726   -4.6648   23.3394 O   0  0  0  0  0  0  0  0  0  0  0  0
    8.5955   -6.0705   17.3996 C   0  0  0  0  0  0  0  0  0  0  0  0
    4.6223   -8.3832   16.5030 C   0  0  0  0  0  0  0  0  0  0  0  0
   12.4690   -5.2624   19.9024 C   0  0  0  0  0  0  0  0  0  0  0  0
    3.2548   -9.9919   17.4189 C   0  0  0  0  0  0  0  0  0  0  0  0
   12.4767   -4.7393   22.1790 C   0  0  0  0  0  0  0  0  0  0  0  0
    7.8593   -5.3772   15.3569 N   0  0  0  0  0  0  0  0  0  0  0  0
    7.4412   -6.9038   16.9283 C   0  0  0  0  0  0  0  0  0  0  0  0
  1 21  4  0
  1 23  4  0
  2  5  1  0
  2 13  4  0
  2 16  4  0
  3  6  4  0
  3  7  4  0
  4 13  4  0
  4 19  4  0
  4 24  4  0
  6 23  4  0
  7 16  1  0
  7 21  4  0
  8 18  1  0
  9 20  4  0
  9 22  4  0
 10 17  1  0
 10 25  1  0
 11 16  4  0
 11 19  4  0
 12 15  4  0
 12 22  4  0
 14 24  4  0
 14 25  4  0
 15 17  4  0
 17 20  4  0
 18 23  1  0
 19 25  4  0
M  END
$$$$

 Created by Python create_sdf_string function

 25 28  0  0  0  0  0  0  0  0999 V2000
   13.1533   -5.2399   21.0682 C   0  0  0  0  0  0  0  0  0  0  0  0
   10.4729   -4.0295   17.6135 C   0  0  0  0  0  0  0  0  0  0  0  0
   10.4789   -4.3641   20.9564 C   0  0  0  0  0  0  0  0  0  0  0  0
    8.7421   -5.1412   16.3650 C   0  0  0  0  0  0  0  0  0  0  0  0
   11.4353   -2.9204   17.8044 C   0  0  0  0  0  0  0  0  0  0  0  0
   11.1529   -4.3028   22.1277 C   0  0  0  0  0  0  0  0  0  0  0  0
   11.1290   -4.8502   19.8052 C   0  0  0  0  0  0  0  0  0  0  0  0
   12.4329   -4.2159   24.4224 C   0  0  0  0  0  0  0  0  0  0  0  0
    3.4740   -9.0387   16.5022 C   0  0  0  0  0  0  0  0  0  0  0  0
    6.8384   -7.9290   17.5282 N   0  0  0  0  0  0  0  0  0  0  0  0
    9.4126   -5.9853   18.4899 C   0  0  0  0  0  0  0  0  0  0  0  0
    4.2064  -10.3242   18.3302 C   0  0  0  0  0  0  0  0  0  0  0  0
    9.6599   -4.1551   16.4796 N   0  0  0  0  0  0  0  0  0  0  0  0
    7.0644   -6.4612   15.7375 N   0  0  0  0  0  0  0  0  0  0  0  0
    5.3549   -9.6322   18.3190 C   0  0  0  0  0  0  0  0  0  0  0  0
   10.3704   -4.9638   18.6510 C   0  0  0  0  0  0  0  0  0  0  0  0
    5.5935   -8.6419   17.4234 C   0  0  0  0  0  0  0  0  0  0  0  0
   13.0726   -4.6648   23.3394 O   0  0  0  0  0  0  0  0  0  0  0  0
    8.5955   -6.0705   17.3996 C   0  0  0  0  0  0  0  0  0  0  0  0
    4.6223   -8.3832   16.5030 C   0  0  0  0  0  0  0  0  0  0  0  0
   12.4690   -5.2624   19.9024 C   0  0  0  0  0  0  0  0  0  0  0  0
    3.2548   -9.9919   17.4189 C   0  0  0  0  0  0  0  0  0  0  0  0
   12.4767   -4.7393   22.1790 C   0  0  0  0  0  0  0  0  0  0  0  0
    7.8593   -5.3772   15.3569 N   0  0  0  0  0  0  0  0  0  0  0  0
    7.4412   -6.9038   16.9283 C   0  0  0  0  0  0  0  0  0  0  0  0
  1 21  4  0
  1 23  4  0
  2  5  1  0
  2 13  4  0
  2 16  4  0
  3  6  4  0
  3  7  4  0
  4 13  4  0
  4 19  4  0
  4 24  4  0
  6 23  4  0
  7 16  1  0
  7 21  4  0
  8 18  1  0
  9 20  4  0
  9 22  4  0
 10 17  1  0
 10 25  1  0
 11 16  4  0
 11 19  4  0
 12 15  4  0
 12 22  4  0
 14 24  4  0
 14 25  4  0
 15 17  4  0
 17 20  4  0
 18 23  1  0
 19 25  4  0
M  END
$$$$

 Created by Python create_sdf_string function

 25 28  0  0  0  0  0  0  0  0999 V2000
   13.1533   -5.2399   21.0682 C   0  0  0  0  0  0  0  0  0  0  0  0
   10.4729   -4.0295   17.6135 C   0  0  0  0  0  0  0  0  0  0  0  0
   10.4789   -4.3641   20.9564 C   0  0  0  0  0  0  0  0  0  0  0  0
    8.7421   -5.1412   16.3650 C   0  0  0  0  0  0  0  0  0  0  0  0
   11.4353   -2.9204   17.8044 C   0  0  0  0  0  0  0  0  0  0  0  0
   11.1529   -4.3028   22.1277 C   0  0  0  0  0  0  0  0  0  0  0  0
   11.1290   -4.8502   19.8052 C   0  0  0  0  0  0  0  0  0  0  0  0
   12.4329   -4.2159   24.4224 C   0  0  0  0  0  0  0  0  0  0  0  0
    3.4740   -9.0387   16.5022 C   0  0  0  0  0  0  0  0  0  0  0  0
    6.8384   -7.9290   17.5282 N   0  0  0  0  0  0  0  0  0  0  0  0
    9.4126   -5.9853   18.4899 C   0  0  0  0  0  0  0  0  0  0  0  0
    4.2064  -10.3242   18.3302 C   0  0  0  0  0  0  0  0  0  0  0  0
    9.6599   -4.1551   16.4796 N   0  0  0  0  0  0  0  0  0  0  0  0
    7.0644   -6.4612   15.7375 N   0  0  0  0  0  0  0  0  0  0  0  0
    5.3549   -9.6322   18.3190 C   0  0  0  0  0  0  0  0  0  0  0  0
   10.3704   -4.9638   18.6510 C   0  0  0  0  0  0  0  0  0  0  0  0
    5.5935   -8.6419   17.4234 C   0  0  0  0  0  0  0  0  0  0  0  0
   13.0726   -4.6648   23.3394 O   0  0  0  0  0  0  0  0  0  0  0  0
    8.5955   -6.0705   17.3996 C   0  0  0  0  0  0  0  0  0  0  0  0
    4.6223   -8.3832   16.5030 C   0  0  0  0  0  0  0  0  0  0  0  0
   12.4690   -5.2624   19.9024 C   0  0  0  0  0  0  0  0  0  0  0  0
    3.2548   -9.9919   17.4189 C   0  0  0  0  0  0  0  0  0  0  0  0
   12.4767   -4.7393   22.1790 C   0  0  0  0  0  0  0  0  0  0  0  0
    7.8593   -5.3772   15.3569 N   0  0  0  0  0  0  0  0  0  0  0  0
    7.4412   -6.9038   16.9283 C   0  0  0  0  0  0  0  0  0  0  0  0
  1 21  4  0
  1 23  4  0
  2  5  1  0
  2 13  4  0
  2 16  4  0
  3  6  4  0
  3  7  4  0
  4 13  4  0
  4 19  4  0
  4 24  4  0
  6 23  4  0
  7 16  1  0
  7 21  4  0
  8 18  1  0
  9 20  4  0
  9 22  4  0
 10 17  1  0
 10 25  1  0
 11 16  4  0
 11 19  4  0
 12 15  4  0
 12 22  4  0
 14 24  4  0
 14 25  4  0
 15 17  4  0
 17 20  4  0
 18 23  1  0
 19 25  4  0
M  END
$$$$

 Created by Python create_sdf_string function

 25 28  0  0  0  0  0  0  0  0999 V2000
   13.1533   -5.2399   21.0682 C   0  0  0  0  0  0  0  0  0  0  0  0
   10.4729   -4.0295   17.6135 C   0  0  0  0  0  0  0  0  0  0  0  0
   10.4789   -4.3641   20.9564 C   0  0  0  0  0  0  0  0  0  0  0  0
    8.7421   -5.1412   16.3650 C   0  0  0  0  0  0  0  0  0  0  0  0
   11.4353   -2.9204   17.8044 C   0  0  0  0  0  0  0  0  0  0  0  0
   11.1529   -4.3028   22.1277 C   0  0  0  0  0  0  0  0  0  0  0  0
   11.1290   -4.8502   19.8052 C   0  0  0  0  0  0  0  0  0  0  0  0
   12.4329   -4.2159   24.4224 C   0  0  0  0  0  0  0  0  0  0  0  0
    3.4740   -9.0387   16.5022 C   0  0  0  0  0  0  0  0  0  0  0  0
    6.8384   -7.9290   17.5282 N   0  0  0  0  0  0  0  0  0  0  0  0
    9.4126   -5.9853   18.4899 C   0  0  0  0  0  0  0  0  0  0  0  0
    4.2064  -10.3242   18.3302 C   0  0  0  0  0  0  0  0  0  0  0  0
    9.6599   -4.1551   16.4796 N   0  0  0  0  0  0  0  0  0  0  0  0
    7.0644   -6.4612   15.7375 N   0  0  0  0  0  0  0  0  0  0  0  0
    5.3549   -9.6322   18.3190 C   0  0  0  0  0  0  0  0  0  0  0  0
   10.3704   -4.9638   18.6510 C   0  0  0  0  0  0  0  0  0  0  0  0
    5.5935   -8.6419   17.4234 C   0  0  0  0  0  0  0  0  0  0  0  0
   13.0726   -4.6648   23.3394 O   0  0  0  0  0  0  0  0  0  0  0  0
    8.5955   -6.0705   17.3996 C   0  0  0  0  0  0  0  0  0  0  0  0
    4.6223   -8.3832   16.5030 C   0  0  0  0  0  0  0  0  0  0  0  0
   12.4690   -5.2624   19.9024 C   0  0  0  0  0  0  0  0  0  0  0  0
    3.2548   -9.9919   17.4189 C   0  0  0  0  0  0  0  0  0  0  0  0
   12.4767   -4.7393   22.1790 C   0  0  0  0  0  0  0  0  0  0  0  0
    7.8593   -5.3772   15.3569 N   0  0  0  0  0  0  0  0  0  0  0  0
    7.4412   -6.9038   16.9283 C   0  0  0  0  0  0  0  0  0  0  0  0
  1 21  4  0
  1 23  4  0
  2  5  1  0
  2 13  4  0
  2 16  4  0
  3  6  4  0
  3  7  4  0
  4 13  4  0
  4 19  4  0
  4 24  4  0
  6 23  4  0
  7 16  1  0
  7 21  4  0
  8 18  1  0
  9 20  4  0
  9 22  4  0
 10 17  1  0
 10 25  1  0
 11 16  4  0
 11 19  4  0
 12 15  4  0
 12 22  4  0
 14 24  4  0
 14 25  4  0
 15 17  4  0
 17 20  4  0
 18 23  1  0
 19 25  4  0
M  END
$$$$

 Created by Python create_sdf_string function

 25 28  0  0  0  0  0  0  0  0999 V2000
   13.1533   -5.2399   21.0682 C   0  0  0  0  0  0  0  0  0  0  0  0
   10.4729   -4.0295   17.6135 C   0  0  0  0  0  0  0  0  0  0  0  0
   10.4789   -4.3641   20.9564 C   0  0  0  0  0  0  0  0  0  0  0  0
    8.7421   -5.1412   16.3650 C   0  0  0  0  0  0  0  0  0  0  0  0
   11.4353   -2.9204   17.8044 C   0  0  0  0  0  0  0  0  0  0  0  0
   11.1529   -4.3028   22.1277 C   0  0  0  0  0  0  0  0  0  0  0  0
   11.1290   -4.8502   19.8052 C   0  0  0  0  0  0  0  0  0  0  0  0
   12.4329   -4.2159   24.4224 C   0  0  0  0  0  0  0  0  0  0  0  0
    3.4740   -9.0387   16.5022 C   0  0  0  0  0  0  0  0  0  0  0  0
    6.8384   -7.9290   17.5282 N   0  0  0  0  0  0  0  0  0  0  0  0
    9.4126   -5.9853   18.4899 C   0  0  0  0  0  0  0  0  0  0  0  0
    4.2064  -10.3242   18.3302 C   0  0  0  0  0  0  0  0  0  0  0  0
    9.6599   -4.1551   16.4796 N   0  0  0  0  0  0  0  0  0  0  0  0
    7.0644   -6.4612   15.7375 N   0  0  0  0  0  0  0  0  0  0  0  0
    5.3549   -9.6322   18.3190 C   0  0  0  0  0  0  0  0  0  0  0  0
   10.3704   -4.9638   18.6510 C   0  0  0  0  0  0  0  0  0  0  0  0
    5.5935   -8.6419   17.4234 C   0  0  0  0  0  0  0  0  0  0  0  0
   13.0726   -4.6648   23.3394 O   0  0  0  0  0  0  0  0  0  0  0  0
    8.5955   -6.0705   17.3996 C   0  0  0  0  0  0  0  0  0  0  0  0
    4.6223   -8.3832   16.5030 C   0  0  0  0  0  0  0  0  0  0  0  0
   12.4690   -5.2624   19.9024 C   0  0  0  0  0  0  0  0  0  0  0  0
    3.2548   -9.9919   17.4189 C   0  0  0  0  0  0  0  0  0  0  0  0
   12.4767   -4.7393   22.1790 C   0  0  0  0  0  0  0  0  0  0  0  0
    7.8593   -5.3772   15.3569 N   0  0  0  0  0  0  0  0  0  0  0  0
    7.4412   -6.9038   16.9283 C   0  0  0  0  0  0  0  0  0  0  0  0
  1 21  4  0
  1 23  4  0
  2  5  1  0
  2 13  4  0
  2 16  4  0
  3  6  4  0
  3  7  4  0
  4 13  4  0
  4 19  4  0
  4 24  4  0
  6 23  4  0
  7 16  1  0
  7 21  4  0
  8 18  1  0
  9 20  4  0
  9 22  4  0
 10 17  1  0
 10 25  1  0
 11 16  4  0
 11 19  4  0
 12 15  4  0
 12 22  4  0
 14 24  4  0
 14 25  4  0
 15 17  4  0
 17 20  4  0
 18 23  1  0
 19 25  4  0
M  END
$$$$

 Created by Python create_sdf_string function

 25 28  0  0  0  0  0  0  0  0999 V2000
   13.1533   -5.2399   21.0682 C   0  0  0  0  0  0  0  0  0  0  0  0
   10.4729   -4.0295   17.6135 C   0  0  0  0  0  0  0  0  0  0  0  0
   10.4789   -4.3641   20.9564 C   0  0  0  0  0  0  0  0  0  0  0  0
    8.7421   -5.1412   16.3650 C   0  0  0  0  0  0  0  0  0  0  0  0
   11.4353   -2.9204   17.8044 C   0  0  0  0  0  0  0  0  0  0  0  0
   11.1529   -4.3028   22.1277 C   0  0  0  0  0  0  0  0  0  0  0  0
   11.1290   -4.8502   19.8052 C   0  0  0  0  0  0  0  0  0  0  0  0
   12.4329   -4.2159   24.4224 C   0  0  0  0  0  0  0  0  0  0  0  0
    3.4740   -9.0387   16.5022 C   0  0  0  0  0  0  0  0  0  0  0  0
    6.8384   -7.9290   17.5282 N   0  0  0  0  0  0  0  0  0  0  0  0
    9.4126   -5.9853   18.4899 C   0  0  0  0  0  0  0  0  0  0  0  0
    4.2064  -10.3242   18.3302 C   0  0  0  0  0  0  0  0  0  0  0  0
    9.6599   -4.1551   16.4796 N   0  0  0  0  0  0  0  0  0  0  0  0
    7.0644   -6.4612   15.7375 N   0  0  0  0  0  0  0  0  0  0  0  0
    5.3549   -9.6322   18.3190 C   0  0  0  0  0  0  0  0  0  0  0  0
   10.3704   -4.9638   18.6510 C   0  0  0  0  0  0  0  0  0  0  0  0
    5.5935   -8.6419   17.4234 C   0  0  0  0  0  0  0  0  0  0  0  0
   13.0726   -4.6648   23.3394 O   0  0  0  0  0  0  0  0  0  0  0  0
    8.5955   -6.0705   17.3996 C   0  0  0  0  0  0  0  0  0  0  0  0
    4.6223   -8.3832   16.5030 C   0  0  0  0  0  0  0  0  0  0  0  0
   12.4690   -5.2624   19.9024 C   0  0  0  0  0  0  0  0  0  0  0  0
    3.2548   -9.9919   17.4189 C   0  0  0  0  0  0  0  0  0  0  0  0
   12.4767   -4.7393   22.1790 C   0  0  0  0  0  0  0  0  0  0  0  0
    7.8593   -5.3772   15.3569 N   0  0  0  0  0  0  0  0  0  0  0  0
    7.4412   -6.9038   16.9283 C   0  0  0  0  0  0  0  0  0  0  0  0
  1 21  4  0
  1 23  4  0
  2  5  1  0
  2 13  4  0
  2 16  4  0
  3  6  4  0
  3  7  4  0
  4 13  4  0
  4 19  4  0
  4 24  4  0
  6 23  4  0
  7 16  1  0
  7 21  4  0
  8 18  1  0
  9 20  4  0
  9 22  4  0
 10 17  1  0
 10 25  1  0
 11 16  4  0
 11 19  4  0
 12 15  4  0
 12 22  4  0
 14 24  4  0
 14 25  4  0
 15 17  4  0
 17 20  4  0
 18 23  1  0
 19 25  4  0
M  END
$$$$

 Created by Python create_sdf_string function

 25 28  0  0  0  0  0  0  0  0999 V2000
   13.1533   -5.2399   21.0682 C   0  0  0  0  0  0  0  0  0  0  0  0
   10.4729   -4.0295   17.6135 C   0  0  0  0  0  0  0  0  0  0  0  0
   10.4789   -4.3641   20.9564 C   0  0  0  0  0  0  0  0  0  0  0  0
    8.7421   -5.1412   16.3650 C   0  0  0  0  0  0  0  0  0  0  0  0
   11.4353   -2.9204   17.8044 C   0  0  0  0  0  0  0  0  0  0  0  0
   11.1529   -4.3028   22.1277 C   0  0  0  0  0  0  0  0  0  0  0  0
   11.1290   -4.8502   19.8052 C   0  0  0  0  0  0  0  0  0  0  0  0
   12.4329   -4.2159   24.4224 C   0  0  0  0  0  0  0  0  0  0  0  0
    3.4740   -9.0387   16.5022 C   0  0  0  0  0  0  0  0  0  0  0  0
    6.8384   -7.9290   17.5282 N   0  0  0  0  0  0  0  0  0  0  0  0
    9.4126   -5.9853   18.4899 C   0  0  0  0  0  0  0  0  0  0  0  0
    4.2064  -10.3242   18.3302 C   0  0  0  0  0  0  0  0  0  0  0  0
    9.6599   -4.1551   16.4796 N   0  0  0  0  0  0  0  0  0  0  0  0
    7.0644   -6.4612   15.7375 N   0  0  0  0  0  0  0  0  0  0  0  0
    5.3549   -9.6322   18.3190 C   0  0  0  0  0  0  0  0  0  0  0  0
   10.3704   -4.9638   18.6510 C   0  0  0  0  0  0  0  0  0  0  0  0
    5.5935   -8.6419   17.4234 C   0  0  0  0  0  0  0  0  0  0  0  0
   13.0726   -4.6648   23.3394 O   0  0  0  0  0  0  0  0  0  0  0  0
    8.5955   -6.0705   17.3996 C   0  0  0  0  0  0  0  0  0  0  0  0
    4.6223   -8.3832   16.5030 C   0  0  0  0  0  0  0  0  0  0  0  0
   12.4690   -5.2624   19.9024 C   0  0  0  0  0  0  0  0  0  0  0  0
    3.2548   -9.9919   17.4189 C   0  0  0  0  0  0  0  0  0  0  0  0
   12.4767   -4.7393   22.1790 C   0  0  0  0  0  0  0  0  0  0  0  0
    7.8593   -5.3772   15.3569 N   0  0  0  0  0  0  0  0  0  0  0  0
    7.4412   -6.9038   16.9283 C   0  0  0  0  0  0  0  0  0  0  0  0
  1 21  4  0
  1 23  4  0
  2  5  1  0
  2 13  4  0
  2 16  4  0
  3  6  4  0
  3  7  4  0
  4 13  4  0
  4 19  4  0
  4 24  4  0
  6 23  4  0
  7 16  1  0
  7 21  4  0
  8 18  1  0
  9 20  4  0
  9 22  4  0
 10 17  1  0
 10 25  1  0
 11 16  4  0
 11 19  4  0
 12 15  4  0
 12 22  4  0
 14 24  4  0
 14 25  4  0
 15 17  4  0
 17 20  4  0
 18 23  1  0
 19 25  4  0
M  END
$$$$

 Created by Python create_sdf_string function

 25 28  0  0  0  0  0  0  0  0999 V2000
   13.1533   -5.2399   21.0682 C   0  0  0  0  0  0  0  0  0  0  0  0
   10.4729   -4.0295   17.6135 C   0  0  0  0  0  0  0  0  0  0  0  0
   10.4789   -4.3641   20.9564 C   0  0  0  0  0  0  0  0  0  0  0  0
    8.7421   -5.1412   16.3650 C   0  0  0  0  0  0  0  0  0  0  0  0
   11.4353   -2.9204   17.8044 C   0  0  0  0  0  0  0  0  0  0  0  0
   11.1529   -4.3028   22.1277 C   0  0  0  0  0  0  0  0  0  0  0  0
   11.1290   -4.8502   19.8052 C   0  0  0  0  0  0  0  0  0  0  0  0
   12.4329   -4.2159   24.4224 C   0  0  0  0  0  0  0  0  0  0  0  0
    3.4740   -9.0387   16.5022 C   0  0  0  0  0  0  0  0  0  0  0  0
    6.8384   -7.9290   17.5282 N   0  0  0  0  0  0  0  0  0  0  0  0
    9.4126   -5.9853   18.4899 C   0  0  0  0  0  0  0  0  0  0  0  0
    4.2064  -10.3242   18.3302 C   0  0  0  0  0  0  0  0  0  0  0  0
    9.6599   -4.1551   16.4796 N   0  0  0  0  0  0  0  0  0  0  0  0
    7.0644   -6.4612   15.7375 N   0  0  0  0  0  0  0  0  0  0  0  0
    5.3549   -9.6322   18.3190 C   0  0  0  0  0  0  0  0  0  0  0  0
   10.3704   -4.9638   18.6510 C   0  0  0  0  0  0  0  0  0  0  0  0
    5.5935   -8.6419   17.4234 C   0  0  0  0  0  0  0  0  0  0  0  0
   13.0726   -4.6648   23.3394 O   0  0  0  0  0  0  0  0  0  0  0  0
    8.5955   -6.0705   17.3996 C   0  0  0  0  0  0  0  0  0  0  0  0
    4.6223   -8.3832   16.5030 C   0  0  0  0  0  0  0  0  0  0  0  0
   12.4690   -5.2624   19.9024 C   0  0  0  0  0  0  0  0  0  0  0  0
    3.2548   -9.9919   17.4189 C   0  0  0  0  0  0  0  0  0  0  0  0
   12.4767   -4.7393   22.1790 C   0  0  0  0  0  0  0  0  0  0  0  0
    7.8593   -5.3772   15.3569 N   0  0  0  0  0  0  0  0  0  0  0  0
    7.4412   -6.9038   16.9283 C   0  0  0  0  0  0  0  0  0  0  0  0
  1 21  4  0
  1 23  4  0
  2  5  1  0
  2 13  4  0
  2 16  4  0
  3  6  4  0
  3  7  4  0
  4 13  4  0
  4 19  4  0
  4 24  4  0
  6 23  4  0
  7 16  1  0
  7 21  4  0
  8 18  1  0
  9 20  4  0
  9 22  4  0
 10 17  1  0
 10 25  1  0
 11 16  4  0
 11 19  4  0
 12 15  4  0
 12 22  4  0
 14 24  4  0
 14 25  4  0
 15 17  4  0
 17 20  4  0
 18 23  1  0
 19 25  4  0
M  END
$$$$

 Created by Python create_sdf_string function

 25 28  0  0  0  0  0  0  0  0999 V2000
   13.1533   -5.2399   21.0682 C   0  0  0  0  0  0  0  0  0  0  0  0
   10.4729   -4.0295   17.6135 C   0  0  0  0  0  0  0  0  0  0  0  0
   10.4789   -4.3641   20.9564 C   0  0  0  0  0  0  0  0  0  0  0  0
    8.7421   -5.1412   16.3650 C   0  0  0  0  0  0  0  0  0  0  0  0
   11.4353   -2.9204   17.8044 C   0  0  0  0  0  0  0  0  0  0  0  0
   11.1529   -4.3028   22.1277 C   0  0  0  0  0  0  0  0  0  0  0  0
   11.1290   -4.8502   19.8052 C   0  0  0  0  0  0  0  0  0  0  0  0
   12.4329   -4.2159   24.4224 C   0  0  0  0  0  0  0  0  0  0  0  0
    3.4740   -9.0387   16.5022 C   0  0  0  0  0  0  0  0  0  0  0  0
    6.8384   -7.9290   17.5282 N   0  0  0  0  0  0  0  0  0  0  0  0
    9.4126   -5.9853   18.4899 C   0  0  0  0  0  0  0  0  0  0  0  0
    4.2064  -10.3242   18.3302 C   0  0  0  0  0  0  0  0  0  0  0  0
    9.6599   -4.1551   16.4796 N   0  0  0  0  0  0  0  0  0  0  0  0
    7.0644   -6.4612   15.7375 N   0  0  0  0  0  0  0  0  0  0  0  0
    5.3549   -9.6322   18.3190 C   0  0  0  0  0  0  0  0  0  0  0  0
   10.3704   -4.9638   18.6510 C   0  0  0  0  0  0  0  0  0  0  0  0
    5.5935   -8.6419   17.4234 C   0  0  0  0  0  0  0  0  0  0  0  0
   13.0726   -4.6648   23.3394 O   0  0  0  0  0  0  0  0  0  0  0  0
    8.5955   -6.0705   17.3996 C   0  0  0  0  0  0  0  0  0  0  0  0
    4.6223   -8.3832   16.5030 C   0  0  0  0  0  0  0  0  0  0  0  0
   12.4690   -5.2624   19.9024 C   0  0  0  0  0  0  0  0  0  0  0  0
    3.2548   -9.9919   17.4189 C   0  0  0  0  0  0  0  0  0  0  0  0
   12.4767   -4.7393   22.1790 C   0  0  0  0  0  0  0  0  0  0  0  0
    7.8593   -5.3772   15.3569 N   0  0  0  0  0  0  0  0  0  0  0  0
    7.4412   -6.9038   16.9283 C   0  0  0  0  0  0  0  0  0  0  0  0
  1 21  4  0
  1 23  4  0
  2  5  1  0
  2 13  4  0
  2 16  4  0
  3  6  4  0
  3  7  4  0
  4 13  4  0
  4 19  4  0
  4 24  4  0
  6 23  4  0
  7 16  1  0
  7 21  4  0
  8 18  1  0
  9 20  4  0
  9 22  4  0
 10 17  1  0
 10 25  1  0
 11 16  4  0
 11 19  4  0
 12 15  4  0
 12 22  4  0
 14 24  4  0
 14 25  4  0
 15 17  4  0
 17 20  4  0
 18 23  1  0
 19 25  4  0
M  END
$$$$

 Created by Python create_sdf_string function

 25 28  0  0  0  0  0  0  0  0999 V2000
   13.1533   -5.2399   21.0682 C   0  0  0  0  0  0  0  0  0  0  0  0
   10.4729   -4.0295   17.6135 C   0  0  0  0  0  0  0  0  0  0  0  0
   10.4789   -4.3641   20.9564 C   0  0  0  0  0  0  0  0  0  0  0  0
    8.7421   -5.1412   16.3650 C   0  0  0  0  0  0  0  0  0  0  0  0
   11.4353   -2.9204   17.8044 C   0  0  0  0  0  0  0  0  0  0  0  0
   11.1529   -4.3028   22.1277 C   0  0  0  0  0  0  0  0  0  0  0  0
   11.1290   -4.8502   19.8052 C   0  0  0  0  0  0  0  0  0  0  0  0
   12.4329   -4.2159   24.4224 C   0  0  0  0  0  0  0  0  0  0  0  0
    3.4740   -9.0387   16.5022 C   0  0  0  0  0  0  0  0  0  0  0  0
    6.8384   -7.9290   17.5282 N   0  0  0  0  0  0  0  0  0  0  0  0
    9.4126   -5.9853   18.4899 C   0  0  0  0  0  0  0  0  0  0  0  0
    4.2064  -10.3242   18.3302 C   0  0  0  0  0  0  0  0  0  0  0  0
    9.6599   -4.1551   16.4796 N   0  0  0  0  0  0  0  0  0  0  0  0
    7.0644   -6.4612   15.7375 N   0  0  0  0  0  0  0  0  0  0  0  0
    5.3549   -9.6322   18.3190 C   0  0  0  0  0  0  0  0  0  0  0  0
   10.3704   -4.9638   18.6510 C   0  0  0  0  0  0  0  0  0  0  0  0
    5.5935   -8.6419   17.4234 C   0  0  0  0  0  0  0  0  0  0  0  0
   13.0726   -4.6648   23.3394 O   0  0  0  0  0  0  0  0  0  0  0  0
    8.5955   -6.0705   17.3996 C   0  0  0  0  0  0  0  0  0  0  0  0
    4.6223   -8.3832   16.5030 C   0  0  0  0  0  0  0  0  0  0  0  0
   12.4690   -5.2624   19.9024 C   0  0  0  0  0  0  0  0  0  0  0  0
    3.2548   -9.9919   17.4189 C   0  0  0  0  0  0  0  0  0  0  0  0
   12.4767   -4.7393   22.1790 C   0  0  0  0  0  0  0  0  0  0  0  0
    7.8593   -5.3772   15.3569 N   0  0  0  0  0  0  0  0  0  0  0  0
    7.4412   -6.9038   16.9283 C   0  0  0  0  0  0  0  0  0  0  0  0
  1 21  4  0
  1 23  4  0
  2  5  1  0
  2 13  4  0
  2 16  4  0
  3  6  4  0
  3  7  4  0
  4 13  4  0
  4 19  4  0
  4 24  4  0
  6 23  4  0
  7 16  1  0
  7 21  4  0
  8 18  1  0
  9 20  4  0
  9 22  4  0
 10 17  1  0
 10 25  1  0
 11 16  4  0
 11 19  4  0
 12 15  4  0
 12 22  4  0
 14 24  4  0
 14 25  4  0
 15 17  4  0
 17 20  4  0
 18 23  1  0
 19 25  4  0
M  END
$$$$

 Created by Python create_sdf_string function

 25 28  0  0  0  0  0  0  0  0999 V2000
   13.1533   -5.2399   21.0682 C   0  0  0  0  0  0  0  0  0  0  0  0
   10.4729   -4.0295   17.6135 C   0  0  0  0  0  0  0  0  0  0  0  0
   10.4789   -4.3641   20.9564 C   0  0  0  0  0  0  0  0  0  0  0  0
    8.7421   -5.1412   16.3650 C   0  0  0  0  0  0  0  0  0  0  0  0
   11.4353   -2.9204   17.8044 C   0  0  0  0  0  0  0  0  0  0  0  0
   11.1529   -4.3028   22.1277 C   0  0  0  0  0  0  0  0  0  0  0  0
   11.1290   -4.8502   19.8052 C   0  0  0  0  0  0  0  0  0  0  0  0
   12.4329   -4.2159   24.4224 C   0  0  0  0  0  0  0  0  0  0  0  0
    3.4740   -9.0387   16.5022 C   0  0  0  0  0  0  0  0  0  0  0  0
    6.8384   -7.9290   17.5282 N   0  0  0  0  0  0  0  0  0  0  0  0
    9.4126   -5.9853   18.4899 C   0  0  0  0  0  0  0  0  0  0  0  0
    4.2064  -10.3242   18.3302 C   0  0  0  0  0  0  0  0  0  0  0  0
    9.6599   -4.1551   16.4796 N   0  0  0  0  0  0  0  0  0  0  0  0
    7.0644   -6.4612   15.7375 N   0  0  0  0  0  0  0  0  0  0  0  0
    5.3549   -9.6322   18.3190 C   0  0  0  0  0  0  0  0  0  0  0  0
   10.3704   -4.9638   18.6510 C   0  0  0  0  0  0  0  0  0  0  0  0
    5.5935   -8.6419   17.4234 C   0  0  0  0  0  0  0  0  0  0  0  0
   13.0726   -4.6648   23.3394 O   0  0  0  0  0  0  0  0  0  0  0  0
    8.5955   -6.0705   17.3996 C   0  0  0  0  0  0  0  0  0  0  0  0
    4.6223   -8.3832   16.5030 C   0  0  0  0  0  0  0  0  0  0  0  0
   12.4690   -5.2624   19.9024 C   0  0  0  0  0  0  0  0  0  0  0  0
    3.2548   -9.9919   17.4189 C   0  0  0  0  0  0  0  0  0  0  0  0
   12.4767   -4.7393   22.1790 C   0  0  0  0  0  0  0  0  0  0  0  0
    7.8593   -5.3772   15.3569 N   0  0  0  0  0  0  0  0  0  0  0  0
    7.4412   -6.9038   16.9283 C   0  0  0  0  0  0  0  0  0  0  0  0
  1 21  4  0
  1 23  4  0
  2  5  1  0
  2 13  4  0
  2 16  4  0
  3  6  4  0
  3  7  4  0
  4 13  4  0
  4 19  4  0
  4 24  4  0
  6 23  4  0
  7 16  1  0
  7 21  4  0
  8 18  1  0
  9 20  4  0
  9 22  4  0
 10 17  1  0
 10 25  1  0
 11 16  4  0
 11 19  4  0
 12 15  4  0
 12 22  4  0
 14 24  4  0
 14 25  4  0
 15 17  4  0
 17 20  4  0
 18 23  1  0
 19 25  4  0
M  END
$$$$

 Created by Python create_sdf_string function

 25 28  0  0  0  0  0  0  0  0999 V2000
   13.1533   -5.2399   21.0682 C   0  0  0  0  0  0  0  0  0  0  0  0
   10.4729   -4.0295   17.6135 C   0  0  0  0  0  0  0  0  0  0  0  0
   10.4789   -4.3641   20.9564 C   0  0  0  0  0  0  0  0  0  0  0  0
    8.7421   -5.1412   16.3650 C   0  0  0  0  0  0  0  0  0  0  0  0
   11.4353   -2.9204   17.8044 C   0  0  0  0  0  0  0  0  0  0  0  0
   11.1529   -4.3028   22.1277 C   0  0  0  0  0  0  0  0  0  0  0  0
   11.1290   -4.8502   19.8052 C   0  0  0  0  0  0  0  0  0  0  0  0
   12.4329   -4.2159   24.4224 C   0  0  0  0  0  0  0  0  0  0  0  0
    3.4740   -9.0387   16.5022 C   0  0  0  0  0  0  0  0  0  0  0  0
    6.8384   -7.9290   17.5282 N   0  0  0  0  0  0  0  0  0  0  0  0
    9.4126   -5.9853   18.4899 C   0  0  0  0  0  0  0  0  0  0  0  0
    4.2064  -10.3242   18.3302 C   0  0  0  0  0  0  0  0  0  0  0  0
    9.6599   -4.1551   16.4796 N   0  0  0  0  0  0  0  0  0  0  0  0
    7.0644   -6.4612   15.7375 N   0  0  0  0  0  0  0  0  0  0  0  0
    5.3549   -9.6322   18.3190 C   0  0  0  0  0  0  0  0  0  0  0  0
   10.3704   -4.9638   18.6510 C   0  0  0  0  0  0  0  0  0  0  0  0
    5.5935   -8.6419   17.4234 C   0  0  0  0  0  0  0  0  0  0  0  0
   13.0726   -4.6648   23.3394 O   0  0  0  0  0  0  0  0  0  0  0  0
    8.5955   -6.0705   17.3996 C   0  0  0  0  0  0  0  0  0  0  0  0
    4.6223   -8.3832   16.5030 C   0  0  0  0  0  0  0  0  0  0  0  0
   12.4690   -5.2624   19.9024 C   0  0  0  0  0  0  0  0  0  0  0  0
    3.2548   -9.9919   17.4189 C   0  0  0  0  0  0  0  0  0  0  0  0
   12.4767   -4.7393   22.1790 C   0  0  0  0  0  0  0  0  0  0  0  0
    7.8593   -5.3772   15.3569 N   0  0  0  0  0  0  0  0  0  0  0  0
    7.4412   -6.9038   16.9283 C   0  0  0  0  0  0  0  0  0  0  0  0
  1 21  4  0
  1 23  4  0
  2  5  1  0
  2 13  4  0
  2 16  4  0
  3  6  4  0
  3  7  4  0
  4 13  4  0
  4 19  4  0
  4 24  4  0
  6 23  4  0
  7 16  1  0
  7 21  4  0
  8 18  1  0
  9 20  4  0
  9 22  4  0
 10 17  1  0
 10 25  1  0
 11 16  4  0
 11 19  4  0
 12 15  4  0
 12 22  4  0
 14 24  4  0
 14 25  4  0
 15 17  4  0
 17 20  4  0
 18 23  1  0
 19 25  4  0
M  END
$$$$

 Created by Python create_sdf_string function

 25 28  0  0  0  0  0  0  0  0999 V2000
   13.1533   -5.2399   21.0682 C   0  0  0  0  0  0  0  0  0  0  0  0
   10.4729   -4.0295   17.6135 C   0  0  0  0  0  0  0  0  0  0  0  0
   10.4789   -4.3641   20.9564 C   0  0  0  0  0  0  0  0  0  0  0  0
    8.7421   -5.1412   16.3650 C   0  0  0  0  0  0  0  0  0  0  0  0
   11.4353   -2.9204   17.8044 C   0  0  0  0  0  0  0  0  0  0  0  0
   11.1529   -4.3028   22.1277 C   0  0  0  0  0  0  0  0  0  0  0  0
   11.1290   -4.8502   19.8052 C   0  0  0  0  0  0  0  0  0  0  0  0
   12.4329   -4.2159   24.4224 C   0  0  0  0  0  0  0  0  0  0  0  0
    3.4740   -9.0387   16.5022 C   0  0  0  0  0  0  0  0  0  0  0  0
    6.8384   -7.9290   17.5282 N   0  0  0  0  0  0  0  0  0  0  0  0
    9.4126   -5.9853   18.4899 C   0  0  0  0  0  0  0  0  0  0  0  0
    4.2064  -10.3242   18.3302 C   0  0  0  0  0  0  0  0  0  0  0  0
    9.6599   -4.1551   16.4796 N   0  0  0  0  0  0  0  0  0  0  0  0
    7.0644   -6.4612   15.7375 N   0  0  0  0  0  0  0  0  0  0  0  0
    5.3549   -9.6322   18.3190 C   0  0  0  0  0  0  0  0  0  0  0  0
   10.3704   -4.9638   18.6510 C   0  0  0  0  0  0  0  0  0  0  0  0
    5.5935   -8.6419   17.4234 C   0  0  0  0  0  0  0  0  0  0  0  0
   13.0726   -4.6648   23.3394 O   0  0  0  0  0  0  0  0  0  0  0  0
    8.5955   -6.0705   17.3996 C   0  0  0  0  0  0  0  0  0  0  0  0
    4.6223   -8.3832   16.5030 C   0  0  0  0  0  0  0  0  0  0  0  0
   12.4690   -5.2624   19.9024 C   0  0  0  0  0  0  0  0  0  0  0  0
    3.2548   -9.9919   17.4189 C   0  0  0  0  0  0  0  0  0  0  0  0
   12.4767   -4.7393   22.1790 C   0  0  0  0  0  0  0  0  0  0  0  0
    7.8593   -5.3772   15.3569 N   0  0  0  0  0  0  0  0  0  0  0  0
    7.4412   -6.9038   16.9283 C   0  0  0  0  0  0  0  0  0  0  0  0
  1 21  4  0
  1 23  4  0
  2  5  1  0
  2 13  4  0
  2 16  4  0
  3  6  4  0
  3  7  4  0
  4 13  4  0
  4 19  4  0
  4 24  4  0
  6 23  4  0
  7 16  1  0
  7 21  4  0
  8 18  1  0
  9 20  4  0
  9 22  4  0
 10 17  1  0
 10 25  1  0
 11 16  4  0
 11 19  4  0
 12 15  4  0
 12 22  4  0
 14 24  4  0
 14 25  4  0
 15 17  4  0
 17 20  4  0
 18 23  1  0
 19 25  4  0
M  END
$$$$

 Created by Python create_sdf_string function

 25 28  0  0  0  0  0  0  0  0999 V2000
   13.1533   -5.2399   21.0682 C   0  0  0  0  0  0  0  0  0  0  0  0
   10.4729   -4.0295   17.6135 C   0  0  0  0  0  0  0  0  0  0  0  0
   10.4789   -4.3641   20.9564 C   0  0  0  0  0  0  0  0  0  0  0  0
    8.7421   -5.1412   16.3650 C   0  0  0  0  0  0  0  0  0  0  0  0
   11.4353   -2.9204   17.8044 C   0  0  0  0  0  0  0  0  0  0  0  0
   11.1529   -4.3028   22.1277 C   0  0  0  0  0  0  0  0  0  0  0  0
   11.1290   -4.8502   19.8052 C   0  0  0  0  0  0  0  0  0  0  0  0
   12.4329   -4.2159   24.4224 C   0  0  0  0  0  0  0  0  0  0  0  0
    3.4740   -9.0387   16.5022 C   0  0  0  0  0  0  0  0  0  0  0  0
    6.8384   -7.9290   17.5282 N   0  0  0  0  0  0  0  0  0  0  0  0
    9.4126   -5.9853   18.4899 C   0  0  0  0  0  0  0  0  0  0  0  0
    4.2064  -10.3242   18.3302 C   0  0  0  0  0  0  0  0  0  0  0  0
    9.6599   -4.1551   16.4796 N   0  0  0  0  0  0  0  0  0  0  0  0
    7.0644   -6.4612   15.7375 N   0  0  0  0  0  0  0  0  0  0  0  0
    5.3549   -9.6322   18.3190 C   0  0  0  0  0  0  0  0  0  0  0  0
   10.3704   -4.9638   18.6510 C   0  0  0  0  0  0  0  0  0  0  0  0
    5.5935   -8.6419   17.4234 C   0  0  0  0  0  0  0  0  0  0  0  0
   13.0726   -4.6648   23.3394 O   0  0  0  0  0  0  0  0  0  0  0  0
    8.5955   -6.0705   17.3996 C   0  0  0  0  0  0  0  0  0  0  0  0
    4.6223   -8.3832   16.5030 C   0  0  0  0  0  0  0  0  0  0  0  0
   12.4690   -5.2624   19.9024 C   0  0  0  0  0  0  0  0  0  0  0  0
    3.2548   -9.9919   17.4189 C   0  0  0  0  0  0  0  0  0  0  0  0
   12.4767   -4.7393   22.1790 C   0  0  0  0  0  0  0  0  0  0  0  0
    7.8593   -5.3772   15.3569 N   0  0  0  0  0  0  0  0  0  0  0  0
    7.4412   -6.9038   16.9283 C   0  0  0  0  0  0  0  0  0  0  0  0
  1 21  4  0
  1 23  4  0
  2  5  1  0
  2 13  4  0
  2 16  4  0
  3  6  4  0
  3  7  4  0
  4 13  4  0
  4 19  4  0
  4 24  4  0
  6 23  4  0
  7 16  1  0
  7 21  4  0
  8 18  1  0
  9 20  4  0
  9 22  4  0
 10 17  1  0
 10 25  1  0
 11 16  4  0
 11 19  4  0
 12 15  4  0
 12 22  4  0
 14 24  4  0
 14 25  4  0
 15 17  4  0
 17 20  4  0
 18 23  1  0
 19 25  4  0
M  END
$$$$

 Created by Python create_sdf_string function

 25 28  0  0  0  0  0  0  0  0999 V2000
   13.1533   -5.2399   21.0682 C   0  0  0  0  0  0  0  0  0  0  0  0
   10.4729   -4.0295   17.6135 C   0  0  0  0  0  0  0  0  0  0  0  0
   10.4789   -4.3641   20.9564 C   0  0  0  0  0  0  0  0  0  0  0  0
    8.7421   -5.1412   16.3650 C   0  0  0  0  0  0  0  0  0  0  0  0
   11.4353   -2.9204   17.8044 C   0  0  0  0  0  0  0  0  0  0  0  0
   11.1529   -4.3028   22.1277 C   0  0  0  0  0  0  0  0  0  0  0  0
   11.1290   -4.8502   19.8052 C   0  0  0  0  0  0  0  0  0  0  0  0
   12.4329   -4.2159   24.4224 C   0  0  0  0  0  0  0  0  0  0  0  0
    3.4740   -9.0387   16.5022 C   0  0  0  0  0  0  0  0  0  0  0  0
    6.8384   -7.9290   17.5282 N   0  0  0  0  0  0  0  0  0  0  0  0
    9.4126   -5.9853   18.4899 C   0  0  0  0  0  0  0  0  0  0  0  0
    4.2064  -10.3242   18.3302 C   0  0  0  0  0  0  0  0  0  0  0  0
    9.6599   -4.1551   16.4796 N   0  0  0  0  0  0  0  0  0  0  0  0
    7.0644   -6.4612   15.7375 N   0  0  0  0  0  0  0  0  0  0  0  0
    5.3549   -9.6322   18.3190 C   0  0  0  0  0  0  0  0  0  0  0  0
   10.3704   -4.9638   18.6510 C   0  0  0  0  0  0  0  0  0  0  0  0
    5.5935   -8.6419   17.4234 C   0  0  0  0  0  0  0  0  0  0  0  0
   13.0726   -4.6648   23.3394 O   0  0  0  0  0  0  0  0  0  0  0  0
    8.5955   -6.0705   17.3996 C   0  0  0  0  0  0  0  0  0  0  0  0
    4.6223   -8.3832   16.5030 C   0  0  0  0  0  0  0  0  0  0  0  0
   12.4690   -5.2624   19.9024 C   0  0  0  0  0  0  0  0  0  0  0  0
    3.2548   -9.9919   17.4189 C   0  0  0  0  0  0  0  0  0  0  0  0
   12.4767   -4.7393   22.1790 C   0  0  0  0  0  0  0  0  0  0  0  0
    7.8593   -5.3772   15.3569 N   0  0  0  0  0  0  0  0  0  0  0  0
    7.4412   -6.9038   16.9283 C   0  0  0  0  0  0  0  0  0  0  0  0
  1 21  4  0
  1 23  4  0
  2  5  1  0
  2 13  4  0
  2 16  4  0
  3  6  4  0
  3  7  4  0
  4 13  4  0
  4 19  4  0
  4 24  4  0
  6 23  4  0
  7 16  1  0
  7 21  4  0
  8 18  1  0
  9 20  4  0
  9 22  4  0
 10 17  1  0
 10 25  1  0
 11 16  4  0
 11 19  4  0
 12 15  4  0
 12 22  4  0
 14 24  4  0
 14 25  4  0
 15 17  4  0
 17 20  4  0
 18 23  1  0
 19 25  4  0
M  END
$$$$

 Created by Python create_sdf_string function

 25 28  0  0  0  0  0  0  0  0999 V2000
   13.1533   -5.2399   21.0682 C   0  0  0  0  0  0  0  0  0  0  0  0
   10.4729   -4.0295   17.6135 C   0  0  0  0  0  0  0  0  0  0  0  0
   10.4789   -4.3641   20.9564 C   0  0  0  0  0  0  0  0  0  0  0  0
    8.7421   -5.1412   16.3650 C   0  0  0  0  0  0  0  0  0  0  0  0
   11.4353   -2.9204   17.8044 C   0  0  0  0  0  0  0  0  0  0  0  0
   11.1529   -4.3028   22.1277 C   0  0  0  0  0  0  0  0  0  0  0  0
   11.1290   -4.8502   19.8052 C   0  0  0  0  0  0  0  0  0  0  0  0
   12.4329   -4.2159   24.4224 C   0  0  0  0  0  0  0  0  0  0  0  0
    3.4740   -9.0387   16.5022 C   0  0  0  0  0  0  0  0  0  0  0  0
    6.8384   -7.9290   17.5282 N   0  0  0  0  0  0  0  0  0  0  0  0
    9.4126   -5.9853   18.4899 C   0  0  0  0  0  0  0  0  0  0  0  0
    4.2064  -10.3242   18.3302 C   0  0  0  0  0  0  0  0  0  0  0  0
    9.6599   -4.1551   16.4796 N   0  0  0  0  0  0  0  0  0  0  0  0
    7.0644   -6.4612   15.7375 N   0  0  0  0  0  0  0  0  0  0  0  0
    5.3549   -9.6322   18.3190 C   0  0  0  0  0  0  0  0  0  0  0  0
   10.3704   -4.9638   18.6510 C   0  0  0  0  0  0  0  0  0  0  0  0
    5.5935   -8.6419   17.4234 C   0  0  0  0  0  0  0  0  0  0  0  0
   13.0726   -4.6648   23.3394 O   0  0  0  0  0  0  0  0  0  0  0  0
    8.5955   -6.0705   17.3996 C   0  0  0  0  0  0  0  0  0  0  0  0
    4.6223   -8.3832   16.5030 C   0  0  0  0  0  0  0  0  0  0  0  0
   12.4690   -5.2624   19.9024 C   0  0  0  0  0  0  0  0  0  0  0  0
    3.2548   -9.9919   17.4189 C   0  0  0  0  0  0  0  0  0  0  0  0
   12.4767   -4.7393   22.1790 C   0  0  0  0  0  0  0  0  0  0  0  0
    7.8593   -5.3772   15.3569 N   0  0  0  0  0  0  0  0  0  0  0  0
    7.4412   -6.9038   16.9283 C   0  0  0  0  0  0  0  0  0  0  0  0
  1 21  4  0
  1 23  4  0
  2  5  1  0
  2 13  4  0
  2 16  4  0
  3  6  4  0
  3  7  4  0
  4 13  4  0
  4 19  4  0
  4 24  4  0
  6 23  4  0
  7 16  1  0
  7 21  4  0
  8 18  1  0
  9 20  4  0
  9 22  4  0
 10 17  1  0
 10 25  1  0
 11 16  4  0
 11 19  4  0
 12 15  4  0
 12 22  4  0
 14 24  4  0
 14 25  4  0
 15 17  4  0
 17 20  4  0
 18 23  1  0
 19 25  4  0
M  END
$$$$

 Created by Python create_sdf_string function

 25 28  0  0  0  0  0  0  0  0999 V2000
   13.1533   -5.2399   21.0682 C   0  0  0  0  0  0  0  0  0  0  0  0
   10.4729   -4.0295   17.6135 C   0  0  0  0  0  0  0  0  0  0  0  0
   10.4789   -4.3641   20.9564 C   0  0  0  0  0  0  0  0  0  0  0  0
    8.7421   -5.1412   16.3650 C   0  0  0  0  0  0  0  0  0  0  0  0
   11.4353   -2.9204   17.8044 C   0  0  0  0  0  0  0  0  0  0  0  0
   11.1529   -4.3028   22.1277 C   0  0  0  0  0  0  0  0  0  0  0  0
   11.1290   -4.8502   19.8052 C   0  0  0  0  0  0  0  0  0  0  0  0
   12.4329   -4.2159   24.4224 C   0  0  0  0  0  0  0  0  0  0  0  0
    3.4740   -9.0387   16.5022 C   0  0  0  0  0  0  0  0  0  0  0  0
    6.8384   -7.9290   17.5282 N   0  0  0  0  0  0  0  0  0  0  0  0
    9.4126   -5.9853   18.4899 C   0  0  0  0  0  0  0  0  0  0  0  0
    4.2064  -10.3242   18.3302 C   0  0  0  0  0  0  0  0  0  0  0  0
    9.6599   -4.1551   16.4796 N   0  0  0  0  0  0  0  0  0  0  0  0
    7.0644   -6.4612   15.7375 N   0  0  0  0  0  0  0  0  0  0  0  0
    5.3549   -9.6322   18.3190 C   0  0  0  0  0  0  0  0  0  0  0  0
   10.3704   -4.9638   18.6510 C   0  0  0  0  0  0  0  0  0  0  0  0
    5.5935   -8.6419   17.4234 C   0  0  0  0  0  0  0  0  0  0  0  0
   13.0726   -4.6648   23.3394 O   0  0  0  0  0  0  0  0  0  0  0  0
    8.5955   -6.0705   17.3996 C   0  0  0  0  0  0  0  0  0  0  0  0
    4.6223   -8.3832   16.5030 C   0  0  0  0  0  0  0  0  0  0  0  0
   12.4690   -5.2624   19.9024 C   0  0  0  0  0  0  0  0  0  0  0  0
    3.2548   -9.9919   17.4189 C   0  0  0  0  0  0  0  0  0  0  0  0
   12.4767   -4.7393   22.1790 C   0  0  0  0  0  0  0  0  0  0  0  0
    7.8593   -5.3772   15.3569 N   0  0  0  0  0  0  0  0  0  0  0  0
    7.4412   -6.9038   16.9283 C   0  0  0  0  0  0  0  0  0  0  0  0
  1 21  4  0
  1 23  4  0
  2  5  1  0
  2 13  4  0
  2 16  4  0
  3  6  4  0
  3  7  4  0
  4 13  4  0
  4 19  4  0
  4 24  4  0
  6 23  4  0
  7 16  1  0
  7 21  4  0
  8 18  1  0
  9 20  4  0
  9 22  4  0
 10 17  1  0
 10 25  1  0
 11 16  4  0
 11 19  4  0
 12 15  4  0
 12 22  4  0
 14 24  4  0
 14 25  4  0
 15 17  4  0
 17 20  4  0
 18 23  1  0
 19 25  4  0
M  END
$$$$

 Created by Python create_sdf_string function

 25 28  0  0  0  0  0  0  0  0999 V2000
   13.1533   -5.2399   21.0682 C   0  0  0  0  0  0  0  0  0  0  0  0
   10.4729   -4.0295   17.6135 C   0  0  0  0  0  0  0  0  0  0  0  0
   10.4789   -4.3641   20.9564 C   0  0  0  0  0  0  0  0  0  0  0  0
    8.7421   -5.1412   16.3650 C   0  0  0  0  0  0  0  0  0  0  0  0
   11.4353   -2.9204   17.8044 C   0  0  0  0  0  0  0  0  0  0  0  0
   11.1529   -4.3028   22.1277 C   0  0  0  0  0  0  0  0  0  0  0  0
   11.1290   -4.8502   19.8052 C   0  0  0  0  0  0  0  0  0  0  0  0
   12.4329   -4.2159   24.4224 C   0  0  0  0  0  0  0  0  0  0  0  0
    3.4740   -9.0387   16.5022 C   0  0  0  0  0  0  0  0  0  0  0  0
    6.8384   -7.9290   17.5282 N   0  0  0  0  0  0  0  0  0  0  0  0
    9.4126   -5.9853   18.4899 C   0  0  0  0  0  0  0  0  0  0  0  0
    4.2064  -10.3242   18.3302 C   0  0  0  0  0  0  0  0  0  0  0  0
    9.6599   -4.1551   16.4796 N   0  0  0  0  0  0  0  0  0  0  0  0
    7.0644   -6.4612   15.7375 N   0  0  0  0  0  0  0  0  0  0  0  0
    5.3549   -9.6322   18.3190 C   0  0  0  0  0  0  0  0  0  0  0  0
   10.3704   -4.9638   18.6510 C   0  0  0  0  0  0  0  0  0  0  0  0
    5.5935   -8.6419   17.4234 C   0  0  0  0  0  0  0  0  0  0  0  0
   13.0726   -4.6648   23.3394 O   0  0  0  0  0  0  0  0  0  0  0  0
    8.5955   -6.0705   17.3996 C   0  0  0  0  0  0  0  0  0  0  0  0
    4.6223   -8.3832   16.5030 C   0  0  0  0  0  0  0  0  0  0  0  0
   12.4690   -5.2624   19.9024 C   0  0  0  0  0  0  0  0  0  0  0  0
    3.2548   -9.9919   17.4189 C   0  0  0  0  0  0  0  0  0  0  0  0
   12.4767   -4.7393   22.1790 C   0  0  0  0  0  0  0  0  0  0  0  0
    7.8593   -5.3772   15.3569 N   0  0  0  0  0  0  0  0  0  0  0  0
    7.4412   -6.9038   16.9283 C   0  0  0  0  0  0  0  0  0  0  0  0
  1 21  4  0
  1 23  4  0
  2  5  1  0
  2 13  4  0
  2 16  4  0
  3  6  4  0
  3  7  4  0
  4 13  4  0
  4 19  4  0
  4 24  4  0
  6 23  4  0
  7 16  1  0
  7 21  4  0
  8 18  1  0
  9 20  4  0
  9 22  4  0
 10 17  1  0
 10 25  1  0
 11 16  4  0
 11 19  4  0
 12 15  4  0
 12 22  4  0
 14 24  4  0
 14 25  4  0
 15 17  4  0
 17 20  4  0
 18 23  1  0
 19 25  4  0
M  END
$$$$

 Created by Python create_sdf_string function

 25 28  0  0  0  0  0  0  0  0999 V2000
   13.1533   -5.2399   21.0682 C   0  0  0  0  0  0  0  0  0  0  0  0
   10.4729   -4.0295   17.6135 C   0  0  0  0  0  0  0  0  0  0  0  0
   10.4789   -4.3641   20.9564 C   0  0  0  0  0  0  0  0  0  0  0  0
    8.7421   -5.1412   16.3650 C   0  0  0  0  0  0  0  0  0  0  0  0
   11.4353   -2.9204   17.8044 C   0  0  0  0  0  0  0  0  0  0  0  0
   11.1529   -4.3028   22.1277 C   0  0  0  0  0  0  0  0  0  0  0  0
   11.1290   -4.8502   19.8052 C   0  0  0  0  0  0  0  0  0  0  0  0
   12.4329   -4.2159   24.4224 C   0  0  0  0  0  0  0  0  0  0  0  0
    3.4740   -9.0387   16.5022 C   0  0  0  0  0  0  0  0  0  0  0  0
    6.8384   -7.9290   17.5282 N   0  0  0  0  0  0  0  0  0  0  0  0
    9.4126   -5.9853   18.4899 C   0  0  0  0  0  0  0  0  0  0  0  0
    4.2064  -10.3242   18.3302 C   0  0  0  0  0  0  0  0  0  0  0  0
    9.6599   -4.1551   16.4796 N   0  0  0  0  0  0  0  0  0  0  0  0
    7.0644   -6.4612   15.7375 N   0  0  0  0  0  0  0  0  0  0  0  0
    5.3549   -9.6322   18.3190 C   0  0  0  0  0  0  0  0  0  0  0  0
   10.3704   -4.9638   18.6510 C   0  0  0  0  0  0  0  0  0  0  0  0
    5.5935   -8.6419   17.4234 C   0  0  0  0  0  0  0  0  0  0  0  0
   13.0726   -4.6648   23.3394 O   0  0  0  0  0  0  0  0  0  0  0  0
    8.5955   -6.0705   17.3996 C   0  0  0  0  0  0  0  0  0  0  0  0
    4.6223   -8.3832   16.5030 C   0  0  0  0  0  0  0  0  0  0  0  0
   12.4690   -5.2624   19.9024 C   0  0  0  0  0  0  0  0  0  0  0  0
    3.2548   -9.9919   17.4189 C   0  0  0  0  0  0  0  0  0  0  0  0
   12.4767   -4.7393   22.1790 C   0  0  0  0  0  0  0  0  0  0  0  0
    7.8593   -5.3772   15.3569 N   0  0  0  0  0  0  0  0  0  0  0  0
    7.4412   -6.9038   16.9283 C   0  0  0  0  0  0  0  0  0  0  0  0
  1 21  4  0
  1 23  4  0
  2  5  1  0
  2 13  4  0
  2 16  4  0
  3  6  4  0
  3  7  4  0
  4 13  4  0
  4 19  4  0
  4 24  4  0
  6 23  4  0
  7 16  1  0
  7 21  4  0
  8 18  1  0
  9 20  4  0
  9 22  4  0
 10 17  1  0
 10 25  1  0
 11 16  4  0
 11 19  4  0
 12 15  4  0
 12 22  4  0
 14 24  4  0
 14 25  4  0
 15 17  4  0
 17 20  4  0
 18 23  1  0
 19 25  4  0
M  END
$$$$

 Created by Python create_sdf_string function

 25 28  0  0  0  0  0  0  0  0999 V2000
   13.1533   -5.2399   21.0682 C   0  0  0  0  0  0  0  0  0  0  0  0
   10.4729   -4.0295   17.6135 C   0  0  0  0  0  0  0  0  0  0  0  0
   10.4789   -4.3641   20.9564 C   0  0  0  0  0  0  0  0  0  0  0  0
    8.7421   -5.1412   16.3650 C   0  0  0  0  0  0  0  0  0  0  0  0
   11.4353   -2.9204   17.8044 C   0  0  0  0  0  0  0  0  0  0  0  0
   11.1529   -4.3028   22.1277 C   0  0  0  0  0  0  0  0  0  0  0  0
   11.1290   -4.8502   19.8052 C   0  0  0  0  0  0  0  0  0  0  0  0
   12.4329   -4.2159   24.4224 C   0  0  0  0  0  0  0  0  0  0  0  0
    3.4740   -9.0387   16.5022 C   0  0  0  0  0  0  0  0  0  0  0  0
    6.8384   -7.9290   17.5282 N   0  0  0  0  0  0  0  0  0  0  0  0
    9.4126   -5.9853   18.4899 C   0  0  0  0  0  0  0  0  0  0  0  0
    4.2064  -10.3242   18.3302 C   0  0  0  0  0  0  0  0  0  0  0  0
    9.6599   -4.1551   16.4796 N   0  0  0  0  0  0  0  0  0  0  0  0
    7.0644   -6.4612   15.7375 N   0  0  0  0  0  0  0  0  0  0  0  0
    5.3549   -9.6322   18.3190 C   0  0  0  0  0  0  0  0  0  0  0  0
   10.3704   -4.9638   18.6510 C   0  0  0  0  0  0  0  0  0  0  0  0
    5.5935   -8.6419   17.4234 C   0  0  0  0  0  0  0  0  0  0  0  0
   13.0726   -4.6648   23.3394 O   0  0  0  0  0  0  0  0  0  0  0  0
    8.5955   -6.0705   17.3996 C   0  0  0  0  0  0  0  0  0  0  0  0
    4.6223   -8.3832   16.5030 C   0  0  0  0  0  0  0  0  0  0  0  0
   12.4690   -5.2624   19.9024 C   0  0  0  0  0  0  0  0  0  0  0  0
    3.2548   -9.9919   17.4189 C   0  0  0  0  0  0  0  0  0  0  0  0
   12.4767   -4.7393   22.1790 C   0  0  0  0  0  0  0  0  0  0  0  0
    7.8593   -5.3772   15.3569 N   0  0  0  0  0  0  0  0  0  0  0  0
    7.4412   -6.9038   16.9283 C   0  0  0  0  0  0  0  0  0  0  0  0
  1 21  4  0
  1 23  4  0
  2  5  1  0
  2 13  4  0
  2 16  4  0
  3  6  4  0
  3  7  4  0
  4 13  4  0
  4 19  4  0
  4 24  4  0
  6 23  4  0
  7 16  1  0
  7 21  4  0
  8 18  1  0
  9 20  4  0
  9 22  4  0
 10 17  1  0
 10 25  1  0
 11 16  4  0
 11 19  4  0
 12 15  4  0
 12 22  4  0
 14 24  4  0
 14 25  4  0
 15 17  4  0
 17 20  4  0
 18 23  1  0
 19 25  4  0
M  END
$$$$

 Created by Python create_sdf_string function

 25 28  0  0  0  0  0  0  0  0999 V2000
   13.1533   -5.2399   21.0682 C   0  0  0  0  0  0  0  0  0  0  0  0
   10.4729   -4.0295   17.6135 C   0  0  0  0  0  0  0  0  0  0  0  0
   10.4789   -4.3641   20.9564 C   0  0  0  0  0  0  0  0  0  0  0  0
    8.7421   -5.1412   16.3650 C   0  0  0  0  0  0  0  0  0  0  0  0
   11.4353   -2.9204   17.8044 C   0  0  0  0  0  0  0  0  0  0  0  0
   11.1529   -4.3028   22.1277 C   0  0  0  0  0  0  0  0  0  0  0  0
   11.1290   -4.8502   19.8052 C   0  0  0  0  0  0  0  0  0  0  0  0
   12.4329   -4.2159   24.4224 C   0  0  0  0  0  0  0  0  0  0  0  0
    3.4740   -9.0387   16.5022 C   0  0  0  0  0  0  0  0  0  0  0  0
    6.8384   -7.9290   17.5282 N   0  0  0  0  0  0  0  0  0  0  0  0
    9.4126   -5.9853   18.4899 C   0  0  0  0  0  0  0  0  0  0  0  0
    4.2064  -10.3242   18.3302 C   0  0  0  0  0  0  0  0  0  0  0  0
    9.6599   -4.1551   16.4796 N   0  0  0  0  0  0  0  0  0  0  0  0
    7.0644   -6.4612   15.7375 N   0  0  0  0  0  0  0  0  0  0  0  0
    5.3549   -9.6322   18.3190 C   0  0  0  0  0  0  0  0  0  0  0  0
   10.3704   -4.9638   18.6510 C   0  0  0  0  0  0  0  0  0  0  0  0
    5.5935   -8.6419   17.4234 C   0  0  0  0  0  0  0  0  0  0  0  0
   13.0726   -4.6648   23.3394 O   0  0  0  0  0  0  0  0  0  0  0  0
    8.5955   -6.0705   17.3996 C   0  0  0  0  0  0  0  0  0  0  0  0
    4.6223   -8.3832   16.5030 C   0  0  0  0  0  0  0  0  0  0  0  0
   12.4690   -5.2624   19.9024 C   0  0  0  0  0  0  0  0  0  0  0  0
    3.2548   -9.9919   17.4189 C   0  0  0  0  0  0  0  0  0  0  0  0
   12.4767   -4.7393   22.1790 C   0  0  0  0  0  0  0  0  0  0  0  0
    7.8593   -5.3772   15.3569 N   0  0  0  0  0  0  0  0  0  0  0  0
    7.4412   -6.9038   16.9283 C   0  0  0  0  0  0  0  0  0  0  0  0
  1 21  4  0
  1 23  4  0
  2  5  1  0
  2 13  4  0
  2 16  4  0
  3  6  4  0
  3  7  4  0
  4 13  4  0
  4 19  4  0
  4 24  4  0
  6 23  4  0
  7 16  1  0
  7 21  4  0
  8 18  1  0
  9 20  4  0
  9 22  4  0
 10 17  1  0
 10 25  1  0
 11 16  4  0
 11 19  4  0
 12 15  4  0
 12 22  4  0
 14 24  4  0
 14 25  4  0
 15 17  4  0
 17 20  4  0
 18 23  1  0
 19 25  4  0
M  END
$$$$

 Created by Python create_sdf_string function

 25 28  0  0  0  0  0  0  0  0999 V2000
   13.1533   -5.2399   21.0682 C   0  0  0  0  0  0  0  0  0  0  0  0
   10.4729   -4.0295   17.6135 C   0  0  0  0  0  0  0  0  0  0  0  0
   10.4789   -4.3641   20.9564 C   0  0  0  0  0  0  0  0  0  0  0  0
    8.7421   -5.1412   16.3650 C   0  0  0  0  0  0  0  0  0  0  0  0
   11.4353   -2.9204   17.8044 C   0  0  0  0  0  0  0  0  0  0  0  0
   11.1529   -4.3028   22.1277 C   0  0  0  0  0  0  0  0  0  0  0  0
   11.1290   -4.8502   19.8052 C   0  0  0  0  0  0  0  0  0  0  0  0
   12.4329   -4.2159   24.4224 C   0  0  0  0  0  0  0  0  0  0  0  0
    3.4740   -9.0387   16.5022 C   0  0  0  0  0  0  0  0  0  0  0  0
    6.8384   -7.9290   17.5282 N   0  0  0  0  0  0  0  0  0  0  0  0
    9.4126   -5.9853   18.4899 C   0  0  0  0  0  0  0  0  0  0  0  0
    4.2064  -10.3242   18.3302 C   0  0  0  0  0  0  0  0  0  0  0  0
    9.6599   -4.1551   16.4796 N   0  0  0  0  0  0  0  0  0  0  0  0
    7.0644   -6.4612   15.7375 N   0  0  0  0  0  0  0  0  0  0  0  0
    5.3549   -9.6322   18.3190 C   0  0  0  0  0  0  0  0  0  0  0  0
   10.3704   -4.9638   18.6510 C   0  0  0  0  0  0  0  0  0  0  0  0
    5.5935   -8.6419   17.4234 C   0  0  0  0  0  0  0  0  0  0  0  0
   13.0726   -4.6648   23.3394 O   0  0  0  0  0  0  0  0  0  0  0  0
    8.5955   -6.0705   17.3996 C   0  0  0  0  0  0  0  0  0  0  0  0
    4.6223   -8.3832   16.5030 C   0  0  0  0  0  0  0  0  0  0  0  0
   12.4690   -5.2624   19.9024 C   0  0  0  0  0  0  0  0  0  0  0  0
    3.2548   -9.9919   17.4189 C   0  0  0  0  0  0  0  0  0  0  0  0
   12.4767   -4.7393   22.1790 C   0  0  0  0  0  0  0  0  0  0  0  0
    7.8593   -5.3772   15.3569 N   0  0  0  0  0  0  0  0  0  0  0  0
    7.4412   -6.9038   16.9283 C   0  0  0  0  0  0  0  0  0  0  0  0
  1 21  4  0
  1 23  4  0
  2  5  1  0
  2 13  4  0
  2 16  4  0
  3  6  4  0
  3  7  4  0
  4 13  4  0
  4 19  4  0
  4 24  4  0
  6 23  4  0
  7 16  1  0
  7 21  4  0
  8 18  1  0
  9 20  4  0
  9 22  4  0
 10 17  1  0
 10 25  1  0
 11 16  4  0
 11 19  4  0
 12 15  4  0
 12 22  4  0
 14 24  4  0
 14 25  4  0
 15 17  4  0
 17 20  4  0
 18 23  1  0
 19 25  4  0
M  END
$$$$

 Created by Python create_sdf_string function

 25 28  0  0  0  0  0  0  0  0999 V2000
   13.1533   -5.2399   21.0682 C   0  0  0  0  0  0  0  0  0  0  0  0
   10.4729   -4.0295   17.6135 C   0  0  0  0  0  0  0  0  0  0  0  0
   10.4789   -4.3641   20.9564 C   0  0  0  0  0  0  0  0  0  0  0  0
    8.7421   -5.1412   16.3650 C   0  0  0  0  0  0  0  0  0  0  0  0
   11.4353   -2.9204   17.8044 C   0  0  0  0  0  0  0  0  0  0  0  0
   11.1529   -4.3028   22.1277 C   0  0  0  0  0  0  0  0  0  0  0  0
   11.1290   -4.8502   19.8052 C   0  0  0  0  0  0  0  0  0  0  0  0
   12.4329   -4.2159   24.4224 C   0  0  0  0  0  0  0  0  0  0  0  0
    3.4740   -9.0387   16.5022 C   0  0  0  0  0  0  0  0  0  0  0  0
    6.8384   -7.9290   17.5282 N   0  0  0  0  0  0  0  0  0  0  0  0
    9.4126   -5.9853   18.4899 C   0  0  0  0  0  0  0  0  0  0  0  0
    4.2064  -10.3242   18.3302 C   0  0  0  0  0  0  0  0  0  0  0  0
    9.6599   -4.1551   16.4796 N   0  0  0  0  0  0  0  0  0  0  0  0
    7.0644   -6.4612   15.7375 N   0  0  0  0  0  0  0  0  0  0  0  0
    5.3549   -9.6322   18.3190 C   0  0  0  0  0  0  0  0  0  0  0  0
   10.3704   -4.9638   18.6510 C   0  0  0  0  0  0  0  0  0  0  0  0
    5.5935   -8.6419   17.4234 C   0  0  0  0  0  0  0  0  0  0  0  0
   13.0726   -4.6648   23.3394 O   0  0  0  0  0  0  0  0  0  0  0  0
    8.5955   -6.0705   17.3996 C   0  0  0  0  0  0  0  0  0  0  0  0
    4.6223   -8.3832   16.5030 C   0  0  0  0  0  0  0  0  0  0  0  0
   12.4690   -5.2624   19.9024 C   0  0  0  0  0  0  0  0  0  0  0  0
    3.2548   -9.9919   17.4189 C   0  0  0  0  0  0  0  0  0  0  0  0
   12.4767   -4.7393   22.1790 C   0  0  0  0  0  0  0  0  0  0  0  0
    7.8593   -5.3772   15.3569 N   0  0  0  0  0  0  0  0  0  0  0  0
    7.4412   -6.9038   16.9283 C   0  0  0  0  0  0  0  0  0  0  0  0
  1 21  4  0
  1 23  4  0
  2  5  1  0
  2 13  4  0
  2 16  4  0
  3  6  4  0
  3  7  4  0
  4 13  4  0
  4 19  4  0
  4 24  4  0
  6 23  4  0
  7 16  1  0
  7 21  4  0
  8 18  1  0
  9 20  4  0
  9 22  4  0
 10 17  1  0
 10 25  1  0
 11 16  4  0
 11 19  4  0
 12 15  4  0
 12 22  4  0
 14 24  4  0
 14 25  4  0
 15 17  4  0
 17 20  4  0
 18 23  1  0
 19 25  4  0
M  END
$$$$

 Created by Python create_sdf_string function

 25 28  0  0  0  0  0  0  0  0999 V2000
   13.1533   -5.2399   21.0682 C   0  0  0  0  0  0  0  0  0  0  0  0
   10.4729   -4.0295   17.6135 C   0  0  0  0  0  0  0  0  0  0  0  0
   10.4789   -4.3641   20.9564 C   0  0  0  0  0  0  0  0  0  0  0  0
    8.7421   -5.1412   16.3650 C   0  0  0  0  0  0  0  0  0  0  0  0
   11.4353   -2.9204   17.8044 C   0  0  0  0  0  0  0  0  0  0  0  0
   11.1529   -4.3028   22.1277 C   0  0  0  0  0  0  0  0  0  0  0  0
   11.1290   -4.8502   19.8052 C   0  0  0  0  0  0  0  0  0  0  0  0
   12.4329   -4.2159   24.4224 C   0  0  0  0  0  0  0  0  0  0  0  0
    3.4740   -9.0387   16.5022 C   0  0  0  0  0  0  0  0  0  0  0  0
    6.8384   -7.9290   17.5282 N   0  0  0  0  0  0  0  0  0  0  0  0
    9.4126   -5.9853   18.4899 C   0  0  0  0  0  0  0  0  0  0  0  0
    4.2064  -10.3242   18.3302 C   0  0  0  0  0  0  0  0  0  0  0  0
    9.6599   -4.1551   16.4796 N   0  0  0  0  0  0  0  0  0  0  0  0
    7.0644   -6.4612   15.7375 N   0  0  0  0  0  0  0  0  0  0  0  0
    5.3549   -9.6322   18.3190 C   0  0  0  0  0  0  0  0  0  0  0  0
   10.3704   -4.9638   18.6510 C   0  0  0  0  0  0  0  0  0  0  0  0
    5.5935   -8.6419   17.4234 C   0  0  0  0  0  0  0  0  0  0  0  0
   13.0726   -4.6648   23.3394 O   0  0  0  0  0  0  0  0  0  0  0  0
    8.5955   -6.0705   17.3996 C   0  0  0  0  0  0  0  0  0  0  0  0
    4.6223   -8.3832   16.5030 C   0  0  0  0  0  0  0  0  0  0  0  0
   12.4690   -5.2624   19.9024 C   0  0  0  0  0  0  0  0  0  0  0  0
    3.2548   -9.9919   17.4189 C   0  0  0  0  0  0  0  0  0  0  0  0
   12.4767   -4.7393   22.1790 C   0  0  0  0  0  0  0  0  0  0  0  0
    7.8593   -5.3772   15.3569 N   0  0  0  0  0  0  0  0  0  0  0  0
    7.4412   -6.9038   16.9283 C   0  0  0  0  0  0  0  0  0  0  0  0
  1 21  4  0
  1 23  4  0
  2  5  1  0
  2 13  4  0
  2 16  4  0
  3  6  4  0
  3  7  4  0
  4 13  4  0
  4 19  4  0
  4 24  4  0
  6 23  4  0
  7 16  1  0
  7 21  4  0
  8 18  1  0
  9 20  4  0
  9 22  4  0
 10 17  1  0
 10 25  1  0
 11 16  4  0
 11 19  4  0
 12 15  4  0
 12 22  4  0
 14 24  4  0
 14 25  4  0
 15 17  4  0
 17 20  4  0
 18 23  1  0
 19 25  4  0
M  END
$$$$

 Created by Python create_sdf_string function

 25 28  0  0  0  0  0  0  0  0999 V2000
   13.1533   -5.2399   21.0682 C   0  0  0  0  0  0  0  0  0  0  0  0
   10.4729   -4.0295   17.6135 C   0  0  0  0  0  0  0  0  0  0  0  0
   10.4789   -4.3641   20.9564 C   0  0  0  0  0  0  0  0  0  0  0  0
    8.7421   -5.1412   16.3650 C   0  0  0  0  0  0  0  0  0  0  0  0
   11.4353   -2.9204   17.8044 C   0  0  0  0  0  0  0  0  0  0  0  0
   11.1529   -4.3028   22.1277 C   0  0  0  0  0  0  0  0  0  0  0  0
   11.1290   -4.8502   19.8052 C   0  0  0  0  0  0  0  0  0  0  0  0
   12.4329   -4.2159   24.4224 C   0  0  0  0  0  0  0  0  0  0  0  0
    3.4740   -9.0387   16.5022 C   0  0  0  0  0  0  0  0  0  0  0  0
    6.8384   -7.9290   17.5282 N   0  0  0  0  0  0  0  0  0  0  0  0
    9.4126   -5.9853   18.4899 C   0  0  0  0  0  0  0  0  0  0  0  0
    4.2064  -10.3242   18.3302 C   0  0  0  0  0  0  0  0  0  0  0  0
    9.6599   -4.1551   16.4796 N   0  0  0  0  0  0  0  0  0  0  0  0
    7.0644   -6.4612   15.7375 N   0  0  0  0  0  0  0  0  0  0  0  0
    5.3549   -9.6322   18.3190 C   0  0  0  0  0  0  0  0  0  0  0  0
   10.3704   -4.9638   18.6510 C   0  0  0  0  0  0  0  0  0  0  0  0
    5.5935   -8.6419   17.4234 C   0  0  0  0  0  0  0  0  0  0  0  0
   13.0726   -4.6648   23.3394 O   0  0  0  0  0  0  0  0  0  0  0  0
    8.5955   -6.0705   17.3996 C   0  0  0  0  0  0  0  0  0  0  0  0
    4.6223   -8.3832   16.5030 C   0  0  0  0  0  0  0  0  0  0  0  0
   12.4690   -5.2624   19.9024 C   0  0  0  0  0  0  0  0  0  0  0  0
    3.2548   -9.9919   17.4189 C   0  0  0  0  0  0  0  0  0  0  0  0
   12.4767   -4.7393   22.1790 C   0  0  0  0  0  0  0  0  0  0  0  0
    7.8593   -5.3772   15.3569 N   0  0  0  0  0  0  0  0  0  0  0  0
    7.4412   -6.9038   16.9283 C   0  0  0  0  0  0  0  0  0  0  0  0
  1 21  4  0
  1 23  4  0
  2  5  1  0
  2 13  4  0
  2 16  4  0
  3  6  4  0
  3  7  4  0
  4 13  4  0
  4 19  4  0
  4 24  4  0
  6 23  4  0
  7 16  1  0
  7 21  4  0
  8 18  1  0
  9 20  4  0
  9 22  4  0
 10 17  1  0
 10 25  1  0
 11 16  4  0
 11 19  4  0
 12 15  4  0
 12 22  4  0
 14 24  4  0
 14 25  4  0
 15 17  4  0
 17 20  4  0
 18 23  1  0
 19 25  4  0
M  END
$$$$

 Created by Python create_sdf_string function

 25 28  0  0  0  0  0  0  0  0999 V2000
   13.1533   -5.2399   21.0682 C   0  0  0  0  0  0  0  0  0  0  0  0
   10.4729   -4.0295   17.6135 C   0  0  0  0  0  0  0  0  0  0  0  0
   10.4789   -4.3641   20.9564 C   0  0  0  0  0  0  0  0  0  0  0  0
    8.7421   -5.1412   16.3650 C   0  0  0  0  0  0  0  0  0  0  0  0
   11.4353   -2.9204   17.8044 C   0  0  0  0  0  0  0  0  0  0  0  0
   11.1529   -4.3028   22.1277 C   0  0  0  0  0  0  0  0  0  0  0  0
   11.1290   -4.8502   19.8052 C   0  0  0  0  0  0  0  0  0  0  0  0
   12.4329   -4.2159   24.4224 C   0  0  0  0  0  0  0  0  0  0  0  0
    3.4740   -9.0387   16.5022 C   0  0  0  0  0  0  0  0  0  0  0  0
    6.8384   -7.9290   17.5282 N   0  0  0  0  0  0  0  0  0  0  0  0
    9.4126   -5.9853   18.4899 C   0  0  0  0  0  0  0  0  0  0  0  0
    4.2064  -10.3242   18.3302 C   0  0  0  0  0  0  0  0  0  0  0  0
    9.6599   -4.1551   16.4796 N   0  0  0  0  0  0  0  0  0  0  0  0
    7.0644   -6.4612   15.7375 N   0  0  0  0  0  0  0  0  0  0  0  0
    5.3549   -9.6322   18.3190 C   0  0  0  0  0  0  0  0  0  0  0  0
   10.3704   -4.9638   18.6510 C   0  0  0  0  0  0  0  0  0  0  0  0
    5.5935   -8.6419   17.4234 C   0  0  0  0  0  0  0  0  0  0  0  0
   13.0726   -4.6648   23.3394 O   0  0  0  0  0  0  0  0  0  0  0  0
    8.5955   -6.0705   17.3996 C   0  0  0  0  0  0  0  0  0  0  0  0
    4.6223   -8.3832   16.5030 C   0  0  0  0  0  0  0  0  0  0  0  0
   12.4690   -5.2624   19.9024 C   0  0  0  0  0  0  0  0  0  0  0  0
    3.2548   -9.9919   17.4189 C   0  0  0  0  0  0  0  0  0  0  0  0
   12.4767   -4.7393   22.1790 C   0  0  0  0  0  0  0  0  0  0  0  0
    7.8593   -5.3772   15.3569 N   0  0  0  0  0  0  0  0  0  0  0  0
    7.4412   -6.9038   16.9283 C   0  0  0  0  0  0  0  0  0  0  0  0
  1 21  4  0
  1 23  4  0
  2  5  1  0
  2 13  4  0
  2 16  4  0
  3  6  4  0
  3  7  4  0
  4 13  4  0
  4 19  4  0
  4 24  4  0
  6 23  4  0
  7 16  1  0
  7 21  4  0
  8 18  1  0
  9 20  4  0
  9 22  4  0
 10 17  1  0
 10 25  1  0
 11 16  4  0
 11 19  4  0
 12 15  4  0
 12 22  4  0
 14 24  4  0
 14 25  4  0
 15 17  4  0
 17 20  4  0
 18 23  1  0
 19 25  4  0
M  END
$$$$

 Created by Python create_sdf_string function

 25 28  0  0  0  0  0  0  0  0999 V2000
   13.1533   -5.2399   21.0682 C   0  0  0  0  0  0  0  0  0  0  0  0
   10.4729   -4.0295   17.6135 C   0  0  0  0  0  0  0  0  0  0  0  0
   10.4789   -4.3641   20.9564 C   0  0  0  0  0  0  0  0  0  0  0  0
    8.7421   -5.1412   16.3650 C   0  0  0  0  0  0  0  0  0  0  0  0
   11.4353   -2.9204   17.8044 C   0  0  0  0  0  0  0  0  0  0  0  0
   11.1529   -4.3028   22.1277 C   0  0  0  0  0  0  0  0  0  0  0  0
   11.1290   -4.8502   19.8052 C   0  0  0  0  0  0  0  0  0  0  0  0
   12.4329   -4.2159   24.4224 C   0  0  0  0  0  0  0  0  0  0  0  0
    3.4740   -9.0387   16.5022 C   0  0  0  0  0  0  0  0  0  0  0  0
    6.8384   -7.9290   17.5282 N   0  0  0  0  0  0  0  0  0  0  0  0
    9.4126   -5.9853   18.4899 C   0  0  0  0  0  0  0  0  0  0  0  0
    4.2064  -10.3242   18.3302 C   0  0  0  0  0  0  0  0  0  0  0  0
    9.6599   -4.1551   16.4796 N   0  0  0  0  0  0  0  0  0  0  0  0
    7.0644   -6.4612   15.7375 N   0  0  0  0  0  0  0  0  0  0  0  0
    5.3549   -9.6322   18.3190 C   0  0  0  0  0  0  0  0  0  0  0  0
   10.3704   -4.9638   18.6510 C   0  0  0  0  0  0  0  0  0  0  0  0
    5.5935   -8.6419   17.4234 C   0  0  0  0  0  0  0  0  0  0  0  0
   13.0726   -4.6648   23.3394 O   0  0  0  0  0  0  0  0  0  0  0  0
    8.5955   -6.0705   17.3996 C   0  0  0  0  0  0  0  0  0  0  0  0
    4.6223   -8.3832   16.5030 C   0  0  0  0  0  0  0  0  0  0  0  0
   12.4690   -5.2624   19.9024 C   0  0  0  0  0  0  0  0  0  0  0  0
    3.2548   -9.9919   17.4189 C   0  0  0  0  0  0  0  0  0  0  0  0
   12.4767   -4.7393   22.1790 C   0  0  0  0  0  0  0  0  0  0  0  0
    7.8593   -5.3772   15.3569 N   0  0  0  0  0  0  0  0  0  0  0  0
    7.4412   -6.9038   16.9283 C   0  0  0  0  0  0  0  0  0  0  0  0
  1 21  4  0
  1 23  4  0
  2  5  1  0
  2 13  4  0
  2 16  4  0
  3  6  4  0
  3  7  4  0
  4 13  4  0
  4 19  4  0
  4 24  4  0
  6 23  4  0
  7 16  1  0
  7 21  4  0
  8 18  1  0
  9 20  4  0
  9 22  4  0
 10 17  1  0
 10 25  1  0
 11 16  4  0
 11 19  4  0
 12 15  4  0
 12 22  4  0
 14 24  4  0
 14 25  4  0
 15 17  4  0
 17 20  4  0
 18 23  1  0
 19 25  4  0
M  END
$$$$

 Created by Python create_sdf_string function

 25 28  0  0  0  0  0  0  0  0999 V2000
   13.1533   -5.2399   21.0682 C   0  0  0  0  0  0  0  0  0  0  0  0
   10.4729   -4.0295   17.6135 C   0  0  0  0  0  0  0  0  0  0  0  0
   10.4789   -4.3641   20.9564 C   0  0  0  0  0  0  0  0  0  0  0  0
    8.7421   -5.1412   16.3650 C   0  0  0  0  0  0  0  0  0  0  0  0
   11.4353   -2.9204   17.8044 C   0  0  0  0  0  0  0  0  0  0  0  0
   11.1529   -4.3028   22.1277 C   0  0  0  0  0  0  0  0  0  0  0  0
   11.1290   -4.8502   19.8052 C   0  0  0  0  0  0  0  0  0  0  0  0
   12.4329   -4.2159   24.4224 C   0  0  0  0  0  0  0  0  0  0  0  0
    3.4740   -9.0387   16.5022 C   0  0  0  0  0  0  0  0  0  0  0  0
    6.8384   -7.9290   17.5282 N   0  0  0  0  0  0  0  0  0  0  0  0
    9.4126   -5.9853   18.4899 C   0  0  0  0  0  0  0  0  0  0  0  0
    4.2064  -10.3242   18.3302 C   0  0  0  0  0  0  0  0  0  0  0  0
    9.6599   -4.1551   16.4796 N   0  0  0  0  0  0  0  0  0  0  0  0
    7.0644   -6.4612   15.7375 N   0  0  0  0  0  0  0  0  0  0  0  0
    5.3549   -9.6322   18.3190 C   0  0  0  0  0  0  0  0  0  0  0  0
   10.3704   -4.9638   18.6510 C   0  0  0  0  0  0  0  0  0  0  0  0
    5.5935   -8.6419   17.4234 C   0  0  0  0  0  0  0  0  0  0  0  0
   13.0726   -4.6648   23.3394 O   0  0  0  0  0  0  0  0  0  0  0  0
    8.5955   -6.0705   17.3996 C   0  0  0  0  0  0  0  0  0  0  0  0
    4.6223   -8.3832   16.5030 C   0  0  0  0  0  0  0  0  0  0  0  0
   12.4690   -5.2624   19.9024 C   0  0  0  0  0  0  0  0  0  0  0  0
    3.2548   -9.9919   17.4189 C   0  0  0  0  0  0  0  0  0  0  0  0
   12.4767   -4.7393   22.1790 C   0  0  0  0  0  0  0  0  0  0  0  0
    7.8593   -5.3772   15.3569 N   0  0  0  0  0  0  0  0  0  0  0  0
    7.4412   -6.9038   16.9283 C   0  0  0  0  0  0  0  0  0  0  0  0
  1 21  4  0
  1 23  4  0
  2  5  1  0
  2 13  4  0
  2 16  4  0
  3  6  4  0
  3  7  4  0
  4 13  4  0
  4 19  4  0
  4 24  4  0
  6 23  4  0
  7 16  1  0
  7 21  4  0
  8 18  1  0
  9 20  4  0
  9 22  4  0
 10 17  1  0
 10 25  1  0
 11 16  4  0
 11 19  4  0
 12 15  4  0
 12 22  4  0
 14 24  4  0
 14 25  4  0
 15 17  4  0
 17 20  4  0
 18 23  1  0
 19 25  4  0
M  END
$$$$

 Created by Python create_sdf_string function

 25 28  0  0  0  0  0  0  0  0999 V2000
   13.1533   -5.2399   21.0682 C   0  0  0  0  0  0  0  0  0  0  0  0
   10.4729   -4.0295   17.6135 C   0  0  0  0  0  0  0  0  0  0  0  0
   10.4789   -4.3641   20.9564 C   0  0  0  0  0  0  0  0  0  0  0  0
    8.7421   -5.1412   16.3650 C   0  0  0  0  0  0  0  0  0  0  0  0
   11.4353   -2.9204   17.8044 C   0  0  0  0  0  0  0  0  0  0  0  0
   11.1529   -4.3028   22.1277 C   0  0  0  0  0  0  0  0  0  0  0  0
   11.1290   -4.8502   19.8052 C   0  0  0  0  0  0  0  0  0  0  0  0
   12.4329   -4.2159   24.4224 C   0  0  0  0  0  0  0  0  0  0  0  0
    3.4740   -9.0387   16.5022 C   0  0  0  0  0  0  0  0  0  0  0  0
    6.8384   -7.9290   17.5282 N   0  0  0  0  0  0  0  0  0  0  0  0
    9.4126   -5.9853   18.4899 C   0  0  0  0  0  0  0  0  0  0  0  0
    4.2064  -10.3242   18.3302 C   0  0  0  0  0  0  0  0  0  0  0  0
    9.6599   -4.1551   16.4796 N   0  0  0  0  0  0  0  0  0  0  0  0
    7.0644   -6.4612   15.7375 N   0  0  0  0  0  0  0  0  0  0  0  0
    5.3549   -9.6322   18.3190 C   0  0  0  0  0  0  0  0  0  0  0  0
   10.3704   -4.9638   18.6510 C   0  0  0  0  0  0  0  0  0  0  0  0
    5.5935   -8.6419   17.4234 C   0  0  0  0  0  0  0  0  0  0  0  0
   13.0726   -4.6648   23.3394 O   0  0  0  0  0  0  0  0  0  0  0  0
    8.5955   -6.0705   17.3996 C   0  0  0  0  0  0  0  0  0  0  0  0
    4.6223   -8.3832   16.5030 C   0  0  0  0  0  0  0  0  0  0  0  0
   12.4690   -5.2624   19.9024 C   0  0  0  0  0  0  0  0  0  0  0  0
    3.2548   -9.9919   17.4189 C   0  0  0  0  0  0  0  0  0  0  0  0
   12.4767   -4.7393   22.1790 C   0  0  0  0  0  0  0  0  0  0  0  0
    7.8593   -5.3772   15.3569 N   0  0  0  0  0  0  0  0  0  0  0  0
    7.4412   -6.9038   16.9283 C   0  0  0  0  0  0  0  0  0  0  0  0
  1 21  4  0
  1 23  4  0
  2  5  1  0
  2 13  4  0
  2 16  4  0
  3  6  4  0
  3  7  4  0
  4 13  4  0
  4 19  4  0
  4 24  4  0
  6 23  4  0
  7 16  1  0
  7 21  4  0
  8 18  1  0
  9 20  4  0
  9 22  4  0
 10 17  1  0
 10 25  1  0
 11 16  4  0
 11 19  4  0
 12 15  4  0
 12 22  4  0
 14 24  4  0
 14 25  4  0
 15 17  4  0
 17 20  4  0
 18 23  1  0
 19 25  4  0
M  END
$$$$

 Created by Python create_sdf_string function

 25 28  0  0  0  0  0  0  0  0999 V2000
   13.1533   -5.2399   21.0682 C   0  0  0  0  0  0  0  0  0  0  0  0
   10.4729   -4.0295   17.6135 C   0  0  0  0  0  0  0  0  0  0  0  0
   10.4789   -4.3641   20.9564 C   0  0  0  0  0  0  0  0  0  0  0  0
    8.7421   -5.1412   16.3650 C   0  0  0  0  0  0  0  0  0  0  0  0
   11.4353   -2.9204   17.8044 C   0  0  0  0  0  0  0  0  0  0  0  0
   11.1529   -4.3028   22.1277 C   0  0  0  0  0  0  0  0  0  0  0  0
   11.1290   -4.8502   19.8052 C   0  0  0  0  0  0  0  0  0  0  0  0
   12.4329   -4.2159   24.4224 C   0  0  0  0  0  0  0  0  0  0  0  0
    3.4740   -9.0387   16.5022 C   0  0  0  0  0  0  0  0  0  0  0  0
    6.8384   -7.9290   17.5282 N   0  0  0  0  0  0  0  0  0  0  0  0
    9.4126   -5.9853   18.4899 C   0  0  0  0  0  0  0  0  0  0  0  0
    4.2064  -10.3242   18.3302 C   0  0  0  0  0  0  0  0  0  0  0  0
    9.6599   -4.1551   16.4796 N   0  0  0  0  0  0  0  0  0  0  0  0
    7.0644   -6.4612   15.7375 N   0  0  0  0  0  0  0  0  0  0  0  0
    5.3549   -9.6322   18.3190 C   0  0  0  0  0  0  0  0  0  0  0  0
   10.3704   -4.9638   18.6510 C   0  0  0  0  0  0  0  0  0  0  0  0
    5.5935   -8.6419   17.4234 C   0  0  0  0  0  0  0  0  0  0  0  0
   13.0726   -4.6648   23.3394 O   0  0  0  0  0  0  0  0  0  0  0  0
    8.5955   -6.0705   17.3996 C   0  0  0  0  0  0  0  0  0  0  0  0
    4.6223   -8.3832   16.5030 C   0  0  0  0  0  0  0  0  0  0  0  0
   12.4690   -5.2624   19.9024 C   0  0  0  0  0  0  0  0  0  0  0  0
    3.2548   -9.9919   17.4189 C   0  0  0  0  0  0  0  0  0  0  0  0
   12.4767   -4.7393   22.1790 C   0  0  0  0  0  0  0  0  0  0  0  0
    7.8593   -5.3772   15.3569 N   0  0  0  0  0  0  0  0  0  0  0  0
    7.4412   -6.9038   16.9283 C   0  0  0  0  0  0  0  0  0  0  0  0
  1 21  4  0
  1 23  4  0
  2  5  1  0
  2 13  4  0
  2 16  4  0
  3  6  4  0
  3  7  4  0
  4 13  4  0
  4 19  4  0
  4 24  4  0
  6 23  4  0
  7 16  1  0
  7 21  4  0
  8 18  1  0
  9 20  4  0
  9 22  4  0
 10 17  1  0
 10 25  1  0
 11 16  4  0
 11 19  4  0
 12 15  4  0
 12 22  4  0
 14 24  4  0
 14 25  4  0
 15 17  4  0
 17 20  4  0
 18 23  1  0
 19 25  4  0
M  END
$$$$

 Created by Python create_sdf_string function

 25 28  0  0  0  0  0  0  0  0999 V2000
   13.1533   -5.2399   21.0682 C   0  0  0  0  0  0  0  0  0  0  0  0
   10.4729   -4.0295   17.6135 C   0  0  0  0  0  0  0  0  0  0  0  0
   10.4789   -4.3641   20.9564 C   0  0  0  0  0  0  0  0  0  0  0  0
    8.7421   -5.1412   16.3650 C   0  0  0  0  0  0  0  0  0  0  0  0
   11.4353   -2.9204   17.8044 C   0  0  0  0  0  0  0  0  0  0  0  0
   11.1529   -4.3028   22.1277 C   0  0  0  0  0  0  0  0  0  0  0  0
   11.1290   -4.8502   19.8052 C   0  0  0  0  0  0  0  0  0  0  0  0
   12.4329   -4.2159   24.4224 C   0  0  0  0  0  0  0  0  0  0  0  0
    3.4740   -9.0387   16.5022 C   0  0  0  0  0  0  0  0  0  0  0  0
    6.8384   -7.9290   17.5282 N   0  0  0  0  0  0  0  0  0  0  0  0
    9.4126   -5.9853   18.4899 C   0  0  0  0  0  0  0  0  0  0  0  0
    4.2064  -10.3242   18.3302 C   0  0  0  0  0  0  0  0  0  0  0  0
    9.6599   -4.1551   16.4796 N   0  0  0  0  0  0  0  0  0  0  0  0
    7.0644   -6.4612   15.7375 N   0  0  0  0  0  0  0  0  0  0  0  0
    5.3549   -9.6322   18.3190 C   0  0  0  0  0  0  0  0  0  0  0  0
   10.3704   -4.9638   18.6510 C   0  0  0  0  0  0  0  0  0  0  0  0
    5.5935   -8.6419   17.4234 C   0  0  0  0  0  0  0  0  0  0  0  0
   13.0726   -4.6648   23.3394 O   0  0  0  0  0  0  0  0  0  0  0  0
    8.5955   -6.0705   17.3996 C   0  0  0  0  0  0  0  0  0  0  0  0
    4.6223   -8.3832   16.5030 C   0  0  0  0  0  0  0  0  0  0  0  0
   12.4690   -5.2624   19.9024 C   0  0  0  0  0  0  0  0  0  0  0  0
    3.2548   -9.9919   17.4189 C   0  0  0  0  0  0  0  0  0  0  0  0
   12.4767   -4.7393   22.1790 C   0  0  0  0  0  0  0  0  0  0  0  0
    7.8593   -5.3772   15.3569 N   0  0  0  0  0  0  0  0  0  0  0  0
    7.4412   -6.9038   16.9283 C   0  0  0  0  0  0  0  0  0  0  0  0
  1 21  4  0
  1 23  4  0
  2  5  1  0
  2 13  4  0
  2 16  4  0
  3  6  4  0
  3  7  4  0
  4 13  4  0
  4 19  4  0
  4 24  4  0
  6 23  4  0
  7 16  1  0
  7 21  4  0
  8 18  1  0
  9 20  4  0
  9 22  4  0
 10 17  1  0
 10 25  1  0
 11 16  4  0
 11 19  4  0
 12 15  4  0
 12 22  4  0
 14 24  4  0
 14 25  4  0
 15 17  4  0
 17 20  4  0
 18 23  1  0
 19 25  4  0
M  END
$$$$

 Created by Python create_sdf_string function

 25 28  0  0  0  0  0  0  0  0999 V2000
   13.1533   -5.2399   21.0682 C   0  0  0  0  0  0  0  0  0  0  0  0
   10.4729   -4.0295   17.6135 C   0  0  0  0  0  0  0  0  0  0  0  0
   10.4789   -4.3641   20.9564 C   0  0  0  0  0  0  0  0  0  0  0  0
    8.7421   -5.1412   16.3650 C   0  0  0  0  0  0  0  0  0  0  0  0
   11.4353   -2.9204   17.8044 C   0  0  0  0  0  0  0  0  0  0  0  0
   11.1529   -4.3028   22.1277 C   0  0  0  0  0  0  0  0  0  0  0  0
   11.1290   -4.8502   19.8052 C   0  0  0  0  0  0  0  0  0  0  0  0
   12.4329   -4.2159   24.4224 C   0  0  0  0  0  0  0  0  0  0  0  0
    3.4740   -9.0387   16.5022 C   0  0  0  0  0  0  0  0  0  0  0  0
    6.8384   -7.9290   17.5282 N   0  0  0  0  0  0  0  0  0  0  0  0
    9.4126   -5.9853   18.4899 C   0  0  0  0  0  0  0  0  0  0  0  0
    4.2064  -10.3242   18.3302 C   0  0  0  0  0  0  0  0  0  0  0  0
    9.6599   -4.1551   16.4796 N   0  0  0  0  0  0  0  0  0  0  0  0
    7.0644   -6.4612   15.7375 N   0  0  0  0  0  0  0  0  0  0  0  0
    5.3549   -9.6322   18.3190 C   0  0  0  0  0  0  0  0  0  0  0  0
   10.3704   -4.9638   18.6510 C   0  0  0  0  0  0  0  0  0  0  0  0
    5.5935   -8.6419   17.4234 C   0  0  0  0  0  0  0  0  0  0  0  0
   13.0726   -4.6648   23.3394 O   0  0  0  0  0  0  0  0  0  0  0  0
    8.5955   -6.0705   17.3996 C   0  0  0  0  0  0  0  0  0  0  0  0
    4.6223   -8.3832   16.5030 C   0  0  0  0  0  0  0  0  0  0  0  0
   12.4690   -5.2624   19.9024 C   0  0  0  0  0  0  0  0  0  0  0  0
    3.2548   -9.9919   17.4189 C   0  0  0  0  0  0  0  0  0  0  0  0
   12.4767   -4.7393   22.1790 C   0  0  0  0  0  0  0  0  0  0  0  0
    7.8593   -5.3772   15.3569 N   0  0  0  0  0  0  0  0  0  0  0  0
    7.4412   -6.9038   16.9283 C   0  0  0  0  0  0  0  0  0  0  0  0
  1 21  4  0
  1 23  4  0
  2  5  1  0
  2 13  4  0
  2 16  4  0
  3  6  4  0
  3  7  4  0
  4 13  4  0
  4 19  4  0
  4 24  4  0
  6 23  4  0
  7 16  1  0
  7 21  4  0
  8 18  1  0
  9 20  4  0
  9 22  4  0
 10 17  1  0
 10 25  1  0
 11 16  4  0
 11 19  4  0
 12 15  4  0
 12 22  4  0
 14 24  4  0
 14 25  4  0
 15 17  4  0
 17 20  4  0
 18 23  1  0
 19 25  4  0
M  END
$$$$

 Created by Python create_sdf_string function

 25 28  0  0  0  0  0  0  0  0999 V2000
   13.1533   -5.2399   21.0682 C   0  0  0  0  0  0  0  0  0  0  0  0
   10.4729   -4.0295   17.6135 C   0  0  0  0  0  0  0  0  0  0  0  0
   10.4789   -4.3641   20.9564 C   0  0  0  0  0  0  0  0  0  0  0  0
    8.7421   -5.1412   16.3650 C   0  0  0  0  0  0  0  0  0  0  0  0
   11.4353   -2.9204   17.8044 C   0  0  0  0  0  0  0  0  0  0  0  0
   11.1529   -4.3028   22.1277 C   0  0  0  0  0  0  0  0  0  0  0  0
   11.1290   -4.8502   19.8052 C   0  0  0  0  0  0  0  0  0  0  0  0
   12.4329   -4.2159   24.4224 C   0  0  0  0  0  0  0  0  0  0  0  0
    3.4740   -9.0387   16.5022 C   0  0  0  0  0  0  0  0  0  0  0  0
    6.8384   -7.9290   17.5282 N   0  0  0  0  0  0  0  0  0  0  0  0
    9.4126   -5.9853   18.4899 C   0  0  0  0  0  0  0  0  0  0  0  0
    4.2064  -10.3242   18.3302 C   0  0  0  0  0  0  0  0  0  0  0  0
    9.6599   -4.1551   16.4796 N   0  0  0  0  0  0  0  0  0  0  0  0
    7.0644   -6.4612   15.7375 N   0  0  0  0  0  0  0  0  0  0  0  0
    5.3549   -9.6322   18.3190 C   0  0  0  0  0  0  0  0  0  0  0  0
   10.3704   -4.9638   18.6510 C   0  0  0  0  0  0  0  0  0  0  0  0
    5.5935   -8.6419   17.4234 C   0  0  0  0  0  0  0  0  0  0  0  0
   13.0726   -4.6648   23.3394 O   0  0  0  0  0  0  0  0  0  0  0  0
    8.5955   -6.0705   17.3996 C   0  0  0  0  0  0  0  0  0  0  0  0
    4.6223   -8.3832   16.5030 C   0  0  0  0  0  0  0  0  0  0  0  0
   12.4690   -5.2624   19.9024 C   0  0  0  0  0  0  0  0  0  0  0  0
    3.2548   -9.9919   17.4189 C   0  0  0  0  0  0  0  0  0  0  0  0
   12.4767   -4.7393   22.1790 C   0  0  0  0  0  0  0  0  0  0  0  0
    7.8593   -5.3772   15.3569 N   0  0  0  0  0  0  0  0  0  0  0  0
    7.4412   -6.9038   16.9283 C   0  0  0  0  0  0  0  0  0  0  0  0
  1 21  4  0
  1 23  4  0
  2  5  1  0
  2 13  4  0
  2 16  4  0
  3  6  4  0
  3  7  4  0
  4 13  4  0
  4 19  4  0
  4 24  4  0
  6 23  4  0
  7 16  1  0
  7 21  4  0
  8 18  1  0
  9 20  4  0
  9 22  4  0
 10 17  1  0
 10 25  1  0
 11 16  4  0
 11 19  4  0
 12 15  4  0
 12 22  4  0
 14 24  4  0
 14 25  4  0
 15 17  4  0
 17 20  4  0
 18 23  1  0
 19 25  4  0
M  END
$$$$

 Created by Python create_sdf_string function

 25 28  0  0  0  0  0  0  0  0999 V2000
   13.1533   -5.2399   21.0682 C   0  0  0  0  0  0  0  0  0  0  0  0
   10.4729   -4.0295   17.6135 C   0  0  0  0  0  0  0  0  0  0  0  0
   10.4789   -4.3641   20.9564 C   0  0  0  0  0  0  0  0  0  0  0  0
    8.7421   -5.1412   16.3650 C   0  0  0  0  0  0  0  0  0  0  0  0
   11.4353   -2.9204   17.8044 C   0  0  0  0  0  0  0  0  0  0  0  0
   11.1529   -4.3028   22.1277 C   0  0  0  0  0  0  0  0  0  0  0  0
   11.1290   -4.8502   19.8052 C   0  0  0  0  0  0  0  0  0  0  0  0
   12.4329   -4.2159   24.4224 C   0  0  0  0  0  0  0  0  0  0  0  0
    3.4740   -9.0387   16.5022 C   0  0  0  0  0  0  0  0  0  0  0  0
    6.8384   -7.9290   17.5282 N   0  0  0  0  0  0  0  0  0  0  0  0
    9.4126   -5.9853   18.4899 C   0  0  0  0  0  0  0  0  0  0  0  0
    4.2064  -10.3242   18.3302 C   0  0  0  0  0  0  0  0  0  0  0  0
    9.6599   -4.1551   16.4796 N   0  0  0  0  0  0  0  0  0  0  0  0
    7.0644   -6.4612   15.7375 N   0  0  0  0  0  0  0  0  0  0  0  0
    5.3549   -9.6322   18.3190 C   0  0  0  0  0  0  0  0  0  0  0  0
   10.3704   -4.9638   18.6510 C   0  0  0  0  0  0  0  0  0  0  0  0
    5.5935   -8.6419   17.4234 C   0  0  0  0  0  0  0  0  0  0  0  0
   13.0726   -4.6648   23.3394 O   0  0  0  0  0  0  0  0  0  0  0  0
    8.5955   -6.0705   17.3996 C   0  0  0  0  0  0  0  0  0  0  0  0
    4.6223   -8.3832   16.5030 C   0  0  0  0  0  0  0  0  0  0  0  0
   12.4690   -5.2624   19.9024 C   0  0  0  0  0  0  0  0  0  0  0  0
    3.2548   -9.9919   17.4189 C   0  0  0  0  0  0  0  0  0  0  0  0
   12.4767   -4.7393   22.1790 C   0  0  0  0  0  0  0  0  0  0  0  0
    7.8593   -5.3772   15.3569 N   0  0  0  0  0  0  0  0  0  0  0  0
    7.4412   -6.9038   16.9283 C   0  0  0  0  0  0  0  0  0  0  0  0
  1 21  4  0
  1 23  4  0
  2  5  1  0
  2 13  4  0
  2 16  4  0
  3  6  4  0
  3  7  4  0
  4 13  4  0
  4 19  4  0
  4 24  4  0
  6 23  4  0
  7 16  1  0
  7 21  4  0
  8 18  1  0
  9 20  4  0
  9 22  4  0
 10 17  1  0
 10 25  1  0
 11 16  4  0
 11 19  4  0
 12 15  4  0
 12 22  4  0
 14 24  4  0
 14 25  4  0
 15 17  4  0
 17 20  4  0
 18 23  1  0
 19 25  4  0
M  END
$$$$

 Created by Python create_sdf_string function

 25 28  0  0  0  0  0  0  0  0999 V2000
   13.1533   -5.2399   21.0682 C   0  0  0  0  0  0  0  0  0  0  0  0
   10.4729   -4.0295   17.6135 C   0  0  0  0  0  0  0  0  0  0  0  0
   10.4789   -4.3641   20.9564 C   0  0  0  0  0  0  0  0  0  0  0  0
    8.7421   -5.1412   16.3650 C   0  0  0  0  0  0  0  0  0  0  0  0
   11.4353   -2.9204   17.8044 C   0  0  0  0  0  0  0  0  0  0  0  0
   11.1529   -4.3028   22.1277 C   0  0  0  0  0  0  0  0  0  0  0  0
   11.1290   -4.8502   19.8052 C   0  0  0  0  0  0  0  0  0  0  0  0
   12.4329   -4.2159   24.4224 C   0  0  0  0  0  0  0  0  0  0  0  0
    3.4740   -9.0387   16.5022 C   0  0  0  0  0  0  0  0  0  0  0  0
    6.8384   -7.9290   17.5282 N   0  0  0  0  0  0  0  0  0  0  0  0
    9.4126   -5.9853   18.4899 C   0  0  0  0  0  0  0  0  0  0  0  0
    4.2064  -10.3242   18.3302 C   0  0  0  0  0  0  0  0  0  0  0  0
    9.6599   -4.1551   16.4796 N   0  0  0  0  0  0  0  0  0  0  0  0
    7.0644   -6.4612   15.7375 N   0  0  0  0  0  0  0  0  0  0  0  0
    5.3549   -9.6322   18.3190 C   0  0  0  0  0  0  0  0  0  0  0  0
   10.3704   -4.9638   18.6510 C   0  0  0  0  0  0  0  0  0  0  0  0
    5.5935   -8.6419   17.4234 C   0  0  0  0  0  0  0  0  0  0  0  0
   13.0726   -4.6648   23.3394 O   0  0  0  0  0  0  0  0  0  0  0  0
    8.5955   -6.0705   17.3996 C   0  0  0  0  0  0  0  0  0  0  0  0
    4.6223   -8.3832   16.5030 C   0  0  0  0  0  0  0  0  0  0  0  0
   12.4690   -5.2624   19.9024 C   0  0  0  0  0  0  0  0  0  0  0  0
    3.2548   -9.9919   17.4189 C   0  0  0  0  0  0  0  0  0  0  0  0
   12.4767   -4.7393   22.1790 C   0  0  0  0  0  0  0  0  0  0  0  0
    7.8593   -5.3772   15.3569 N   0  0  0  0  0  0  0  0  0  0  0  0
    7.4412   -6.9038   16.9283 C   0  0  0  0  0  0  0  0  0  0  0  0
  1 21  4  0
  1 23  4  0
  2  5  1  0
  2 13  4  0
  2 16  4  0
  3  6  4  0
  3  7  4  0
  4 13  4  0
  4 19  4  0
  4 24  4  0
  6 23  4  0
  7 16  1  0
  7 21  4  0
  8 18  1  0
  9 20  4  0
  9 22  4  0
 10 17  1  0
 10 25  1  0
 11 16  4  0
 11 19  4  0
 12 15  4  0
 12 22  4  0
 14 24  4  0
 14 25  4  0
 15 17  4  0
 17 20  4  0
 18 23  1  0
 19 25  4  0
M  END
$$$$

 Created by Python create_sdf_string function

 25 28  0  0  0  0  0  0  0  0999 V2000
   13.1533   -5.2399   21.0682 C   0  0  0  0  0  0  0  0  0  0  0  0
   10.4729   -4.0295   17.6135 C   0  0  0  0  0  0  0  0  0  0  0  0
   10.4789   -4.3641   20.9564 C   0  0  0  0  0  0  0  0  0  0  0  0
    8.7421   -5.1412   16.3650 C   0  0  0  0  0  0  0  0  0  0  0  0
   11.4353   -2.9204   17.8044 C   0  0  0  0  0  0  0  0  0  0  0  0
   11.1529   -4.3028   22.1277 C   0  0  0  0  0  0  0  0  0  0  0  0
   11.1290   -4.8502   19.8052 C   0  0  0  0  0  0  0  0  0  0  0  0
   12.4329   -4.2159   24.4224 C   0  0  0  0  0  0  0  0  0  0  0  0
    3.4740   -9.0387   16.5022 C   0  0  0  0  0  0  0  0  0  0  0  0
    6.8384   -7.9290   17.5282 N   0  0  0  0  0  0  0  0  0  0  0  0
    9.4126   -5.9853   18.4899 C   0  0  0  0  0  0  0  0  0  0  0  0
    4.2064  -10.3242   18.3302 C   0  0  0  0  0  0  0  0  0  0  0  0
    9.6599   -4.1551   16.4796 N   0  0  0  0  0  0  0  0  0  0  0  0
    7.0644   -6.4612   15.7375 N   0  0  0  0  0  0  0  0  0  0  0  0
    5.3549   -9.6322   18.3190 C   0  0  0  0  0  0  0  0  0  0  0  0
   10.3704   -4.9638   18.6510 C   0  0  0  0  0  0  0  0  0  0  0  0
    5.5935   -8.6419   17.4234 C   0  0  0  0  0  0  0  0  0  0  0  0
   13.0726   -4.6648   23.3394 O   0  0  0  0  0  0  0  0  0  0  0  0
    8.5955   -6.0705   17.3996 C   0  0  0  0  0  0  0  0  0  0  0  0
    4.6223   -8.3832   16.5030 C   0  0  0  0  0  0  0  0  0  0  0  0
   12.4690   -5.2624   19.9024 C   0  0  0  0  0  0  0  0  0  0  0  0
    3.2548   -9.9919   17.4189 C   0  0  0  0  0  0  0  0  0  0  0  0
   12.4767   -4.7393   22.1790 C   0  0  0  0  0  0  0  0  0  0  0  0
    7.8593   -5.3772   15.3569 N   0  0  0  0  0  0  0  0  0  0  0  0
    7.4412   -6.9038   16.9283 C   0  0  0  0  0  0  0  0  0  0  0  0
  1 21  4  0
  1 23  4  0
  2  5  1  0
  2 13  4  0
  2 16  4  0
  3  6  4  0
  3  7  4  0
  4 13  4  0
  4 19  4  0
  4 24  4  0
  6 23  4  0
  7 16  1  0
  7 21  4  0
  8 18  1  0
  9 20  4  0
  9 22  4  0
 10 17  1  0
 10 25  1  0
 11 16  4  0
 11 19  4  0
 12 15  4  0
 12 22  4  0
 14 24  4  0
 14 25  4  0
 15 17  4  0
 17 20  4  0
 18 23  1  0
 19 25  4  0
M  END
$$$$

 Created by Python create_sdf_string function

 25 28  0  0  0  0  0  0  0  0999 V2000
   13.1533   -5.2399   21.0682 C   0  0  0  0  0  0  0  0  0  0  0  0
   10.4729   -4.0295   17.6135 C   0  0  0  0  0  0  0  0  0  0  0  0
   10.4789   -4.3641   20.9564 C   0  0  0  0  0  0  0  0  0  0  0  0
    8.7421   -5.1412   16.3650 C   0  0  0  0  0  0  0  0  0  0  0  0
   11.4353   -2.9204   17.8044 C   0  0  0  0  0  0  0  0  0  0  0  0
   11.1529   -4.3028   22.1277 C   0  0  0  0  0  0  0  0  0  0  0  0
   11.1290   -4.8502   19.8052 C   0  0  0  0  0  0  0  0  0  0  0  0
   12.4329   -4.2159   24.4224 C   0  0  0  0  0  0  0  0  0  0  0  0
    3.4740   -9.0387   16.5022 C   0  0  0  0  0  0  0  0  0  0  0  0
    6.8384   -7.9290   17.5282 N   0  0  0  0  0  0  0  0  0  0  0  0
    9.4126   -5.9853   18.4899 C   0  0  0  0  0  0  0  0  0  0  0  0
    4.2064  -10.3242   18.3302 C   0  0  0  0  0  0  0  0  0  0  0  0
    9.6599   -4.1551   16.4796 N   0  0  0  0  0  0  0  0  0  0  0  0
    7.0644   -6.4612   15.7375 N   0  0  0  0  0  0  0  0  0  0  0  0
    5.3549   -9.6322   18.3190 C   0  0  0  0  0  0  0  0  0  0  0  0
   10.3704   -4.9638   18.6510 C   0  0  0  0  0  0  0  0  0  0  0  0
    5.5935   -8.6419   17.4234 C   0  0  0  0  0  0  0  0  0  0  0  0
   13.0726   -4.6648   23.3394 O   0  0  0  0  0  0  0  0  0  0  0  0
    8.5955   -6.0705   17.3996 C   0  0  0  0  0  0  0  0  0  0  0  0
    4.6223   -8.3832   16.5030 C   0  0  0  0  0  0  0  0  0  0  0  0
   12.4690   -5.2624   19.9024 C   0  0  0  0  0  0  0  0  0  0  0  0
    3.2548   -9.9919   17.4189 C   0  0  0  0  0  0  0  0  0  0  0  0
   12.4767   -4.7393   22.1790 C   0  0  0  0  0  0  0  0  0  0  0  0
    7.8593   -5.3772   15.3569 N   0  0  0  0  0  0  0  0  0  0  0  0
    7.4412   -6.9038   16.9283 C   0  0  0  0  0  0  0  0  0  0  0  0
  1 21  4  0
  1 23  4  0
  2  5  1  0
  2 13  4  0
  2 16  4  0
  3  6  4  0
  3  7  4  0
  4 13  4  0
  4 19  4  0
  4 24  4  0
  6 23  4  0
  7 16  1  0
  7 21  4  0
  8 18  1  0
  9 20  4  0
  9 22  4  0
 10 17  1  0
 10 25  1  0
 11 16  4  0
 11 19  4  0
 12 15  4  0
 12 22  4  0
 14 24  4  0
 14 25  4  0
 15 17  4  0
 17 20  4  0
 18 23  1  0
 19 25  4  0
M  END
$$$$

 Created by Python create_sdf_string function

 25 28  0  0  0  0  0  0  0  0999 V2000
   13.1533   -5.2399   21.0682 C   0  0  0  0  0  0  0  0  0  0  0  0
   10.4729   -4.0295   17.6135 C   0  0  0  0  0  0  0  0  0  0  0  0
   10.4789   -4.3641   20.9564 C   0  0  0  0  0  0  0  0  0  0  0  0
    8.7421   -5.1412   16.3650 C   0  0  0  0  0  0  0  0  0  0  0  0
   11.4353   -2.9204   17.8044 C   0  0  0  0  0  0  0  0  0  0  0  0
   11.1529   -4.3028   22.1277 C   0  0  0  0  0  0  0  0  0  0  0  0
   11.1290   -4.8502   19.8052 C   0  0  0  0  0  0  0  0  0  0  0  0
   12.4329   -4.2159   24.4224 C   0  0  0  0  0  0  0  0  0  0  0  0
    3.4740   -9.0387   16.5022 C   0  0  0  0  0  0  0  0  0  0  0  0
    6.8384   -7.9290   17.5282 N   0  0  0  0  0  0  0  0  0  0  0  0
    9.4126   -5.9853   18.4899 C   0  0  0  0  0  0  0  0  0  0  0  0
    4.2064  -10.3242   18.3302 C   0  0  0  0  0  0  0  0  0  0  0  0
    9.6599   -4.1551   16.4796 N   0  0  0  0  0  0  0  0  0  0  0  0
    7.0644   -6.4612   15.7375 N   0  0  0  0  0  0  0  0  0  0  0  0
    5.3549   -9.6322   18.3190 C   0  0  0  0  0  0  0  0  0  0  0  0
   10.3704   -4.9638   18.6510 C   0  0  0  0  0  0  0  0  0  0  0  0
    5.5935   -8.6419   17.4234 C   0  0  0  0  0  0  0  0  0  0  0  0
   13.0726   -4.6648   23.3394 O   0  0  0  0  0  0  0  0  0  0  0  0
    8.5955   -6.0705   17.3996 C   0  0  0  0  0  0  0  0  0  0  0  0
    4.6223   -8.3832   16.5030 C   0  0  0  0  0  0  0  0  0  0  0  0
   12.4690   -5.2624   19.9024 C   0  0  0  0  0  0  0  0  0  0  0  0
    3.2548   -9.9919   17.4189 C   0  0  0  0  0  0  0  0  0  0  0  0
   12.4767   -4.7393   22.1790 C   0  0  0  0  0  0  0  0  0  0  0  0
    7.8593   -5.3772   15.3569 N   0  0  0  0  0  0  0  0  0  0  0  0
    7.4412   -6.9038   16.9283 C   0  0  0  0  0  0  0  0  0  0  0  0
  1 21  4  0
  1 23  4  0
  2  5  1  0
  2 13  4  0
  2 16  4  0
  3  6  4  0
  3  7  4  0
  4 13  4  0
  4 19  4  0
  4 24  4  0
  6 23  4  0
  7 16  1  0
  7 21  4  0
  8 18  1  0
  9 20  4  0
  9 22  4  0
 10 17  1  0
 10 25  1  0
 11 16  4  0
 11 19  4  0
 12 15  4  0
 12 22  4  0
 14 24  4  0
 14 25  4  0
 15 17  4  0
 17 20  4  0
 18 23  1  0
 19 25  4  0
M  END
$$$$

 Created by Python create_sdf_string function

 25 28  0  0  0  0  0  0  0  0999 V2000
   13.1533   -5.2399   21.0682 C   0  0  0  0  0  0  0  0  0  0  0  0
   10.4729   -4.0295   17.6135 C   0  0  0  0  0  0  0  0  0  0  0  0
   10.4789   -4.3641   20.9564 C   0  0  0  0  0  0  0  0  0  0  0  0
    8.7421   -5.1412   16.3650 C   0  0  0  0  0  0  0  0  0  0  0  0
   11.4353   -2.9204   17.8044 C   0  0  0  0  0  0  0  0  0  0  0  0
   11.1529   -4.3028   22.1277 C   0  0  0  0  0  0  0  0  0  0  0  0
   11.1290   -4.8502   19.8052 C   0  0  0  0  0  0  0  0  0  0  0  0
   12.4329   -4.2159   24.4224 C   0  0  0  0  0  0  0  0  0  0  0  0
    3.4740   -9.0387   16.5022 C   0  0  0  0  0  0  0  0  0  0  0  0
    6.8384   -7.9290   17.5282 N   0  0  0  0  0  0  0  0  0  0  0  0
    9.4126   -5.9853   18.4899 C   0  0  0  0  0  0  0  0  0  0  0  0
    4.2064  -10.3242   18.3302 C   0  0  0  0  0  0  0  0  0  0  0  0
    9.6599   -4.1551   16.4796 N   0  0  0  0  0  0  0  0  0  0  0  0
    7.0644   -6.4612   15.7375 N   0  0  0  0  0  0  0  0  0  0  0  0
    5.3549   -9.6322   18.3190 C   0  0  0  0  0  0  0  0  0  0  0  0
   10.3704   -4.9638   18.6510 C   0  0  0  0  0  0  0  0  0  0  0  0
    5.5935   -8.6419   17.4234 C   0  0  0  0  0  0  0  0  0  0  0  0
   13.0726   -4.6648   23.3394 O   0  0  0  0  0  0  0  0  0  0  0  0
    8.5955   -6.0705   17.3996 C   0  0  0  0  0  0  0  0  0  0  0  0
    4.6223   -8.3832   16.5030 C   0  0  0  0  0  0  0  0  0  0  0  0
   12.4690   -5.2624   19.9024 C   0  0  0  0  0  0  0  0  0  0  0  0
    3.2548   -9.9919   17.4189 C   0  0  0  0  0  0  0  0  0  0  0  0
   12.4767   -4.7393   22.1790 C   0  0  0  0  0  0  0  0  0  0  0  0
    7.8593   -5.3772   15.3569 N   0  0  0  0  0  0  0  0  0  0  0  0
    7.4412   -6.9038   16.9283 C   0  0  0  0  0  0  0  0  0  0  0  0
  1 21  4  0
  1 23  4  0
  2  5  1  0
  2 13  4  0
  2 16  4  0
  3  6  4  0
  3  7  4  0
  4 13  4  0
  4 19  4  0
  4 24  4  0
  6 23  4  0
  7 16  1  0
  7 21  4  0
  8 18  1  0
  9 20  4  0
  9 22  4  0
 10 17  1  0
 10 25  1  0
 11 16  4  0
 11 19  4  0
 12 15  4  0
 12 22  4  0
 14 24  4  0
 14 25  4  0
 15 17  4  0
 17 20  4  0
 18 23  1  0
 19 25  4  0
M  END
$$$$

 Created by Python create_sdf_string function

 25 28  0  0  0  0  0  0  0  0999 V2000
   13.1533   -5.2399   21.0682 C   0  0  0  0  0  0  0  0  0  0  0  0
   10.4729   -4.0295   17.6135 C   0  0  0  0  0  0  0  0  0  0  0  0
   10.4789   -4.3641   20.9564 C   0  0  0  0  0  0  0  0  0  0  0  0
    8.7421   -5.1412   16.3650 C   0  0  0  0  0  0  0  0  0  0  0  0
   11.4353   -2.9204   17.8044 C   0  0  0  0  0  0  0  0  0  0  0  0
   11.1529   -4.3028   22.1277 C   0  0  0  0  0  0  0  0  0  0  0  0
   11.1290   -4.8502   19.8052 C   0  0  0  0  0  0  0  0  0  0  0  0
   12.4329   -4.2159   24.4224 C   0  0  0  0  0  0  0  0  0  0  0  0
    3.4740   -9.0387   16.5022 C   0  0  0  0  0  0  0  0  0  0  0  0
    6.8384   -7.9290   17.5282 N   0  0  0  0  0  0  0  0  0  0  0  0
    9.4126   -5.9853   18.4899 C   0  0  0  0  0  0  0  0  0  0  0  0
    4.2064  -10.3242   18.3302 C   0  0  0  0  0  0  0  0  0  0  0  0
    9.6599   -4.1551   16.4796 N   0  0  0  0  0  0  0  0  0  0  0  0
    7.0644   -6.4612   15.7375 N   0  0  0  0  0  0  0  0  0  0  0  0
    5.3549   -9.6322   18.3190 C   0  0  0  0  0  0  0  0  0  0  0  0
   10.3704   -4.9638   18.6510 C   0  0  0  0  0  0  0  0  0  0  0  0
    5.5935   -8.6419   17.4234 C   0  0  0  0  0  0  0  0  0  0  0  0
   13.0726   -4.6648   23.3394 O   0  0  0  0  0  0  0  0  0  0  0  0
    8.5955   -6.0705   17.3996 C   0  0  0  0  0  0  0  0  0  0  0  0
    4.6223   -8.3832   16.5030 C   0  0  0  0  0  0  0  0  0  0  0  0
   12.4690   -5.2624   19.9024 C   0  0  0  0  0  0  0  0  0  0  0  0
    3.2548   -9.9919   17.4189 C   0  0  0  0  0  0  0  0  0  0  0  0
   12.4767   -4.7393   22.1790 C   0  0  0  0  0  0  0  0  0  0  0  0
    7.8593   -5.3772   15.3569 N   0  0  0  0  0  0  0  0  0  0  0  0
    7.4412   -6.9038   16.9283 C   0  0  0  0  0  0  0  0  0  0  0  0
  1 21  4  0
  1 23  4  0
  2  5  1  0
  2 13  4  0
  2 16  4  0
  3  6  4  0
  3  7  4  0
  4 13  4  0
  4 19  4  0
  4 24  4  0
  6 23  4  0
  7 16  1  0
  7 21  4  0
  8 18  1  0
  9 20  4  0
  9 22  4  0
 10 17  1  0
 10 25  1  0
 11 16  4  0
 11 19  4  0
 12 15  4  0
 12 22  4  0
 14 24  4  0
 14 25  4  0
 15 17  4  0
 17 20  4  0
 18 23  1  0
 19 25  4  0
M  END
$$$$

 Created by Python create_sdf_string function

 25 28  0  0  0  0  0  0  0  0999 V2000
   13.1533   -5.2399   21.0682 C   0  0  0  0  0  0  0  0  0  0  0  0
   10.4729   -4.0295   17.6135 C   0  0  0  0  0  0  0  0  0  0  0  0
   10.4789   -4.3641   20.9564 C   0  0  0  0  0  0  0  0  0  0  0  0
    8.7421   -5.1412   16.3650 C   0  0  0  0  0  0  0  0  0  0  0  0
   11.4353   -2.9204   17.8044 C   0  0  0  0  0  0  0  0  0  0  0  0
   11.1529   -4.3028   22.1277 C   0  0  0  0  0  0  0  0  0  0  0  0
   11.1290   -4.8502   19.8052 C   0  0  0  0  0  0  0  0  0  0  0  0
   12.4329   -4.2159   24.4224 C   0  0  0  0  0  0  0  0  0  0  0  0
    3.4740   -9.0387   16.5022 C   0  0  0  0  0  0  0  0  0  0  0  0
    6.8384   -7.9290   17.5282 N   0  0  0  0  0  0  0  0  0  0  0  0
    9.4126   -5.9853   18.4899 C   0  0  0  0  0  0  0  0  0  0  0  0
    4.2064  -10.3242   18.3302 C   0  0  0  0  0  0  0  0  0  0  0  0
    9.6599   -4.1551   16.4796 N   0  0  0  0  0  0  0  0  0  0  0  0
    7.0644   -6.4612   15.7375 N   0  0  0  0  0  0  0  0  0  0  0  0
    5.3549   -9.6322   18.3190 C   0  0  0  0  0  0  0  0  0  0  0  0
   10.3704   -4.9638   18.6510 C   0  0  0  0  0  0  0  0  0  0  0  0
    5.5935   -8.6419   17.4234 C   0  0  0  0  0  0  0  0  0  0  0  0
   13.0726   -4.6648   23.3394 O   0  0  0  0  0  0  0  0  0  0  0  0
    8.5955   -6.0705   17.3996 C   0  0  0  0  0  0  0  0  0  0  0  0
    4.6223   -8.3832   16.5030 C   0  0  0  0  0  0  0  0  0  0  0  0
   12.4690   -5.2624   19.9024 C   0  0  0  0  0  0  0  0  0  0  0  0
    3.2548   -9.9919   17.4189 C   0  0  0  0  0  0  0  0  0  0  0  0
   12.4767   -4.7393   22.1790 C   0  0  0  0  0  0  0  0  0  0  0  0
    7.8593   -5.3772   15.3569 N   0  0  0  0  0  0  0  0  0  0  0  0
    7.4412   -6.9038   16.9283 C   0  0  0  0  0  0  0  0  0  0  0  0
  1 21  4  0
  1 23  4  0
  2  5  1  0
  2 13  4  0
  2 16  4  0
  3  6  4  0
  3  7  4  0
  4 13  4  0
  4 19  4  0
  4 24  4  0
  6 23  4  0
  7 16  1  0
  7 21  4  0
  8 18  1  0
  9 20  4  0
  9 22  4  0
 10 17  1  0
 10 25  1  0
 11 16  4  0
 11 19  4  0
 12 15  4  0
 12 22  4  0
 14 24  4  0
 14 25  4  0
 15 17  4  0
 17 20  4  0
 18 23  1  0
 19 25  4  0
M  END
$$$$

 Created by Python create_sdf_string function

 25 28  0  0  0  0  0  0  0  0999 V2000
   13.1533   -5.2399   21.0682 C   0  0  0  0  0  0  0  0  0  0  0  0
   10.4729   -4.0295   17.6135 C   0  0  0  0  0  0  0  0  0  0  0  0
   10.4789   -4.3641   20.9564 C   0  0  0  0  0  0  0  0  0  0  0  0
    8.7421   -5.1412   16.3650 C   0  0  0  0  0  0  0  0  0  0  0  0
   11.4353   -2.9204   17.8044 C   0  0  0  0  0  0  0  0  0  0  0  0
   11.1529   -4.3028   22.1277 C   0  0  0  0  0  0  0  0  0  0  0  0
   11.1290   -4.8502   19.8052 C   0  0  0  0  0  0  0  0  0  0  0  0
   12.4329   -4.2159   24.4224 C   0  0  0  0  0  0  0  0  0  0  0  0
    3.4740   -9.0387   16.5022 C   0  0  0  0  0  0  0  0  0  0  0  0
    6.8384   -7.9290   17.5282 N   0  0  0  0  0  0  0  0  0  0  0  0
    9.4126   -5.9853   18.4899 C   0  0  0  0  0  0  0  0  0  0  0  0
    4.2064  -10.3242   18.3302 C   0  0  0  0  0  0  0  0  0  0  0  0
    9.6599   -4.1551   16.4796 N   0  0  0  0  0  0  0  0  0  0  0  0
    7.0644   -6.4612   15.7375 N   0  0  0  0  0  0  0  0  0  0  0  0
    5.3549   -9.6322   18.3190 C   0  0  0  0  0  0  0  0  0  0  0  0
   10.3704   -4.9638   18.6510 C   0  0  0  0  0  0  0  0  0  0  0  0
    5.5935   -8.6419   17.4234 C   0  0  0  0  0  0  0  0  0  0  0  0
   13.0726   -4.6648   23.3394 O   0  0  0  0  0  0  0  0  0  0  0  0
    8.5955   -6.0705   17.3996 C   0  0  0  0  0  0  0  0  0  0  0  0
    4.6223   -8.3832   16.5030 C   0  0  0  0  0  0  0  0  0  0  0  0
   12.4690   -5.2624   19.9024 C   0  0  0  0  0  0  0  0  0  0  0  0
    3.2548   -9.9919   17.4189 C   0  0  0  0  0  0  0  0  0  0  0  0
   12.4767   -4.7393   22.1790 C   0  0  0  0  0  0  0  0  0  0  0  0
    7.8593   -5.3772   15.3569 N   0  0  0  0  0  0  0  0  0  0  0  0
    7.4412   -6.9038   16.9283 C   0  0  0  0  0  0  0  0  0  0  0  0
  1 21  4  0
  1 23  4  0
  2  5  1  0
  2 13  4  0
  2 16  4  0
  3  6  4  0
  3  7  4  0
  4 13  4  0
  4 19  4  0
  4 24  4  0
  6 23  4  0
  7 16  1  0
  7 21  4  0
  8 18  1  0
  9 20  4  0
  9 22  4  0
 10 17  1  0
 10 25  1  0
 11 16  4  0
 11 19  4  0
 12 15  4  0
 12 22  4  0
 14 24  4  0
 14 25  4  0
 15 17  4  0
 17 20  4  0
 18 23  1  0
 19 25  4  0
M  END
$$$$

 Created by Python create_sdf_string function

 25 28  0  0  0  0  0  0  0  0999 V2000
   13.1533   -5.2399   21.0682 C   0  0  0  0  0  0  0  0  0  0  0  0
   10.4729   -4.0295   17.6135 C   0  0  0  0  0  0  0  0  0  0  0  0
   10.4789   -4.3641   20.9564 C   0  0  0  0  0  0  0  0  0  0  0  0
    8.7421   -5.1412   16.3650 C   0  0  0  0  0  0  0  0  0  0  0  0
   11.4353   -2.9204   17.8044 C   0  0  0  0  0  0  0  0  0  0  0  0
   11.1529   -4.3028   22.1277 C   0  0  0  0  0  0  0  0  0  0  0  0
   11.1290   -4.8502   19.8052 C   0  0  0  0  0  0  0  0  0  0  0  0
   12.4329   -4.2159   24.4224 C   0  0  0  0  0  0  0  0  0  0  0  0
    3.4740   -9.0387   16.5022 C   0  0  0  0  0  0  0  0  0  0  0  0
    6.8384   -7.9290   17.5282 N   0  0  0  0  0  0  0  0  0  0  0  0
    9.4126   -5.9853   18.4899 C   0  0  0  0  0  0  0  0  0  0  0  0
    4.2064  -10.3242   18.3302 C   0  0  0  0  0  0  0  0  0  0  0  0
    9.6599   -4.1551   16.4796 N   0  0  0  0  0  0  0  0  0  0  0  0
    7.0644   -6.4612   15.7375 N   0  0  0  0  0  0  0  0  0  0  0  0
    5.3549   -9.6322   18.3190 C   0  0  0  0  0  0  0  0  0  0  0  0
   10.3704   -4.9638   18.6510 C   0  0  0  0  0  0  0  0  0  0  0  0
    5.5935   -8.6419   17.4234 C   0  0  0  0  0  0  0  0  0  0  0  0
   13.0726   -4.6648   23.3394 O   0  0  0  0  0  0  0  0  0  0  0  0
    8.5955   -6.0705   17.3996 C   0  0  0  0  0  0  0  0  0  0  0  0
    4.6223   -8.3832   16.5030 C   0  0  0  0  0  0  0  0  0  0  0  0
   12.4690   -5.2624   19.9024 C   0  0  0  0  0  0  0  0  0  0  0  0
    3.2548   -9.9919   17.4189 C   0  0  0  0  0  0  0  0  0  0  0  0
   12.4767   -4.7393   22.1790 C   0  0  0  0  0  0  0  0  0  0  0  0
    7.8593   -5.3772   15.3569 N   0  0  0  0  0  0  0  0  0  0  0  0
    7.4412   -6.9038   16.9283 C   0  0  0  0  0  0  0  0  0  0  0  0
  1 21  4  0
  1 23  4  0
  2  5  1  0
  2 13  4  0
  2 16  4  0
  3  6  4  0
  3  7  4  0
  4 13  4  0
  4 19  4  0
  4 24  4  0
  6 23  4  0
  7 16  1  0
  7 21  4  0
  8 18  1  0
  9 20  4  0
  9 22  4  0
 10 17  1  0
 10 25  1  0
 11 16  4  0
 11 19  4  0
 12 15  4  0
 12 22  4  0
 14 24  4  0
 14 25  4  0
 15 17  4  0
 17 20  4  0
 18 23  1  0
 19 25  4  0
M  END
$$$$

 Created by Python create_sdf_string function

 25 28  0  0  0  0  0  0  0  0999 V2000
   13.1533   -5.2399   21.0682 C   0  0  0  0  0  0  0  0  0  0  0  0
   10.4729   -4.0295   17.6135 C   0  0  0  0  0  0  0  0  0  0  0  0
   10.4789   -4.3641   20.9564 C   0  0  0  0  0  0  0  0  0  0  0  0
    8.7421   -5.1412   16.3650 C   0  0  0  0  0  0  0  0  0  0  0  0
   11.4353   -2.9204   17.8044 C   0  0  0  0  0  0  0  0  0  0  0  0
   11.1529   -4.3028   22.1277 C   0  0  0  0  0  0  0  0  0  0  0  0
   11.1290   -4.8502   19.8052 C   0  0  0  0  0  0  0  0  0  0  0  0
   12.4329   -4.2159   24.4224 C   0  0  0  0  0  0  0  0  0  0  0  0
    3.4740   -9.0387   16.5022 C   0  0  0  0  0  0  0  0  0  0  0  0
    6.8384   -7.9290   17.5282 N   0  0  0  0  0  0  0  0  0  0  0  0
    9.4126   -5.9853   18.4899 C   0  0  0  0  0  0  0  0  0  0  0  0
    4.2064  -10.3242   18.3302 C   0  0  0  0  0  0  0  0  0  0  0  0
    9.6599   -4.1551   16.4796 N   0  0  0  0  0  0  0  0  0  0  0  0
    7.0644   -6.4612   15.7375 N   0  0  0  0  0  0  0  0  0  0  0  0
    5.3549   -9.6322   18.3190 C   0  0  0  0  0  0  0  0  0  0  0  0
   10.3704   -4.9638   18.6510 C   0  0  0  0  0  0  0  0  0  0  0  0
    5.5935   -8.6419   17.4234 C   0  0  0  0  0  0  0  0  0  0  0  0
   13.0726   -4.6648   23.3394 O   0  0  0  0  0  0  0  0  0  0  0  0
    8.5955   -6.0705   17.3996 C   0  0  0  0  0  0  0  0  0  0  0  0
    4.6223   -8.3832   16.5030 C   0  0  0  0  0  0  0  0  0  0  0  0
   12.4690   -5.2624   19.9024 C   0  0  0  0  0  0  0  0  0  0  0  0
    3.2548   -9.9919   17.4189 C   0  0  0  0  0  0  0  0  0  0  0  0
   12.4767   -4.7393   22.1790 C   0  0  0  0  0  0  0  0  0  0  0  0
    7.8593   -5.3772   15.3569 N   0  0  0  0  0  0  0  0  0  0  0  0
    7.4412   -6.9038   16.9283 C   0  0  0  0  0  0  0  0  0  0  0  0
  1 21  4  0
  1 23  4  0
  2  5  1  0
  2 13  4  0
  2 16  4  0
  3  6  4  0
  3  7  4  0
  4 13  4  0
  4 19  4  0
  4 24  4  0
  6 23  4  0
  7 16  1  0
  7 21  4  0
  8 18  1  0
  9 20  4  0
  9 22  4  0
 10 17  1  0
 10 25  1  0
 11 16  4  0
 11 19  4  0
 12 15  4  0
 12 22  4  0
 14 24  4  0
 14 25  4  0
 15 17  4  0
 17 20  4  0
 18 23  1  0
 19 25  4  0
M  END
$$$$

 Created by Python create_sdf_string function

 25 28  0  0  0  0  0  0  0  0999 V2000
   13.1533   -5.2399   21.0682 C   0  0  0  0  0  0  0  0  0  0  0  0
   10.4729   -4.0295   17.6135 C   0  0  0  0  0  0  0  0  0  0  0  0
   10.4789   -4.3641   20.9564 C   0  0  0  0  0  0  0  0  0  0  0  0
    8.7421   -5.1412   16.3650 C   0  0  0  0  0  0  0  0  0  0  0  0
   11.4353   -2.9204   17.8044 C   0  0  0  0  0  0  0  0  0  0  0  0
   11.1529   -4.3028   22.1277 C   0  0  0  0  0  0  0  0  0  0  0  0
   11.1290   -4.8502   19.8052 C   0  0  0  0  0  0  0  0  0  0  0  0
   12.4329   -4.2159   24.4224 C   0  0  0  0  0  0  0  0  0  0  0  0
    3.4740   -9.0387   16.5022 C   0  0  0  0  0  0  0  0  0  0  0  0
    6.8384   -7.9290   17.5282 N   0  0  0  0  0  0  0  0  0  0  0  0
    9.4126   -5.9853   18.4899 C   0  0  0  0  0  0  0  0  0  0  0  0
    4.2064  -10.3242   18.3302 C   0  0  0  0  0  0  0  0  0  0  0  0
    9.6599   -4.1551   16.4796 N   0  0  0  0  0  0  0  0  0  0  0  0
    7.0644   -6.4612   15.7375 N   0  0  0  0  0  0  0  0  0  0  0  0
    5.3549   -9.6322   18.3190 C   0  0  0  0  0  0  0  0  0  0  0  0
   10.3704   -4.9638   18.6510 C   0  0  0  0  0  0  0  0  0  0  0  0
    5.5935   -8.6419   17.4234 C   0  0  0  0  0  0  0  0  0  0  0  0
   13.0726   -4.6648   23.3394 O   0  0  0  0  0  0  0  0  0  0  0  0
    8.5955   -6.0705   17.3996 C   0  0  0  0  0  0  0  0  0  0  0  0
    4.6223   -8.3832   16.5030 C   0  0  0  0  0  0  0  0  0  0  0  0
   12.4690   -5.2624   19.9024 C   0  0  0  0  0  0  0  0  0  0  0  0
    3.2548   -9.9919   17.4189 C   0  0  0  0  0  0  0  0  0  0  0  0
   12.4767   -4.7393   22.1790 C   0  0  0  0  0  0  0  0  0  0  0  0
    7.8593   -5.3772   15.3569 N   0  0  0  0  0  0  0  0  0  0  0  0
    7.4412   -6.9038   16.9283 C   0  0  0  0  0  0  0  0  0  0  0  0
  1 21  4  0
  1 23  4  0
  2  5  1  0
  2 13  4  0
  2 16  4  0
  3  6  4  0
  3  7  4  0
  4 13  4  0
  4 19  4  0
  4 24  4  0
  6 23  4  0
  7 16  1  0
  7 21  4  0
  8 18  1  0
  9 20  4  0
  9 22  4  0
 10 17  1  0
 10 25  1  0
 11 16  4  0
 11 19  4  0
 12 15  4  0
 12 22  4  0
 14 24  4  0
 14 25  4  0
 15 17  4  0
 17 20  4  0
 18 23  1  0
 19 25  4  0
M  END
$$$$

 Created by Python create_sdf_string function

 25 28  0  0  0  0  0  0  0  0999 V2000
   13.1533   -5.2399   21.0682 C   0  0  0  0  0  0  0  0  0  0  0  0
   10.4729   -4.0295   17.6135 C   0  0  0  0  0  0  0  0  0  0  0  0
   10.4789   -4.3641   20.9564 C   0  0  0  0  0  0  0  0  0  0  0  0
    8.7421   -5.1412   16.3650 C   0  0  0  0  0  0  0  0  0  0  0  0
   11.4353   -2.9204   17.8044 C   0  0  0  0  0  0  0  0  0  0  0  0
   11.1529   -4.3028   22.1277 C   0  0  0  0  0  0  0  0  0  0  0  0
   11.1290   -4.8502   19.8052 C   0  0  0  0  0  0  0  0  0  0  0  0
   12.4329   -4.2159   24.4224 C   0  0  0  0  0  0  0  0  0  0  0  0
    3.4740   -9.0387   16.5022 C   0  0  0  0  0  0  0  0  0  0  0  0
    6.8384   -7.9290   17.5282 N   0  0  0  0  0  0  0  0  0  0  0  0
    9.4126   -5.9853   18.4899 C   0  0  0  0  0  0  0  0  0  0  0  0
    4.2064  -10.3242   18.3302 C   0  0  0  0  0  0  0  0  0  0  0  0
    9.6599   -4.1551   16.4796 N   0  0  0  0  0  0  0  0  0  0  0  0
    7.0644   -6.4612   15.7375 N   0  0  0  0  0  0  0  0  0  0  0  0
    5.3549   -9.6322   18.3190 C   0  0  0  0  0  0  0  0  0  0  0  0
   10.3704   -4.9638   18.6510 C   0  0  0  0  0  0  0  0  0  0  0  0
    5.5935   -8.6419   17.4234 C   0  0  0  0  0  0  0  0  0  0  0  0
   13.0726   -4.6648   23.3394 O   0  0  0  0  0  0  0  0  0  0  0  0
    8.5955   -6.0705   17.3996 C   0  0  0  0  0  0  0  0  0  0  0  0
    4.6223   -8.3832   16.5030 C   0  0  0  0  0  0  0  0  0  0  0  0
   12.4690   -5.2624   19.9024 C   0  0  0  0  0  0  0  0  0  0  0  0
    3.2548   -9.9919   17.4189 C   0  0  0  0  0  0  0  0  0  0  0  0
   12.4767   -4.7393   22.1790 C   0  0  0  0  0  0  0  0  0  0  0  0
    7.8593   -5.3772   15.3569 N   0  0  0  0  0  0  0  0  0  0  0  0
    7.4412   -6.9038   16.9283 C   0  0  0  0  0  0  0  0  0  0  0  0
  1 21  4  0
  1 23  4  0
  2  5  1  0
  2 13  4  0
  2 16  4  0
  3  6  4  0
  3  7  4  0
  4 13  4  0
  4 19  4  0
  4 24  4  0
  6 23  4  0
  7 16  1  0
  7 21  4  0
  8 18  1  0
  9 20  4  0
  9 22  4  0
 10 17  1  0
 10 25  1  0
 11 16  4  0
 11 19  4  0
 12 15  4  0
 12 22  4  0
 14 24  4  0
 14 25  4  0
 15 17  4  0
 17 20  4  0
 18 23  1  0
 19 25  4  0
M  END
$$$$

 Created by Python create_sdf_string function

 25 28  0  0  0  0  0  0  0  0999 V2000
   13.1533   -5.2399   21.0682 C   0  0  0  0  0  0  0  0  0  0  0  0
   10.4729   -4.0295   17.6135 C   0  0  0  0  0  0  0  0  0  0  0  0
   10.4789   -4.3641   20.9564 C   0  0  0  0  0  0  0  0  0  0  0  0
    8.7421   -5.1412   16.3650 C   0  0  0  0  0  0  0  0  0  0  0  0
   11.4353   -2.9204   17.8044 C   0  0  0  0  0  0  0  0  0  0  0  0
   11.1529   -4.3028   22.1277 C   0  0  0  0  0  0  0  0  0  0  0  0
   11.1290   -4.8502   19.8052 C   0  0  0  0  0  0  0  0  0  0  0  0
   12.4329   -4.2159   24.4224 C   0  0  0  0  0  0  0  0  0  0  0  0
    3.4740   -9.0387   16.5022 C   0  0  0  0  0  0  0  0  0  0  0  0
    6.8384   -7.9290   17.5282 N   0  0  0  0  0  0  0  0  0  0  0  0
    9.4126   -5.9853   18.4899 C   0  0  0  0  0  0  0  0  0  0  0  0
    4.2064  -10.3242   18.3302 C   0  0  0  0  0  0  0  0  0  0  0  0
    9.6599   -4.1551   16.4796 N   0  0  0  0  0  0  0  0  0  0  0  0
    7.0644   -6.4612   15.7375 N   0  0  0  0  0  0  0  0  0  0  0  0
    5.3549   -9.6322   18.3190 C   0  0  0  0  0  0  0  0  0  0  0  0
   10.3704   -4.9638   18.6510 C   0  0  0  0  0  0  0  0  0  0  0  0
    5.5935   -8.6419   17.4234 C   0  0  0  0  0  0  0  0  0  0  0  0
   13.0726   -4.6648   23.3394 O   0  0  0  0  0  0  0  0  0  0  0  0
    8.5955   -6.0705   17.3996 C   0  0  0  0  0  0  0  0  0  0  0  0
    4.6223   -8.3832   16.5030 C   0  0  0  0  0  0  0  0  0  0  0  0
   12.4690   -5.2624   19.9024 C   0  0  0  0  0  0  0  0  0  0  0  0
    3.2548   -9.9919   17.4189 C   0  0  0  0  0  0  0  0  0  0  0  0
   12.4767   -4.7393   22.1790 C   0  0  0  0  0  0  0  0  0  0  0  0
    7.8593   -5.3772   15.3569 N   0  0  0  0  0  0  0  0  0  0  0  0
    7.4412   -6.9038   16.9283 C   0  0  0  0  0  0  0  0  0  0  0  0
  1 21  4  0
  1 23  4  0
  2  5  1  0
  2 13  4  0
  2 16  4  0
  3  6  4  0
  3  7  4  0
  4 13  4  0
  4 19  4  0
  4 24  4  0
  6 23  4  0
  7 16  1  0
  7 21  4  0
  8 18  1  0
  9 20  4  0
  9 22  4  0
 10 17  1  0
 10 25  1  0
 11 16  4  0
 11 19  4  0
 12 15  4  0
 12 22  4  0
 14 24  4  0
 14 25  4  0
 15 17  4  0
 17 20  4  0
 18 23  1  0
 19 25  4  0
M  END
$$$$

 Created by Python create_sdf_string function

 25 28  0  0  0  0  0  0  0  0999 V2000
   13.1533   -5.2399   21.0682 C   0  0  0  0  0  0  0  0  0  0  0  0
   10.4729   -4.0295   17.6135 C   0  0  0  0  0  0  0  0  0  0  0  0
   10.4789   -4.3641   20.9564 C   0  0  0  0  0  0  0  0  0  0  0  0
    8.7421   -5.1412   16.3650 C   0  0  0  0  0  0  0  0  0  0  0  0
   11.4353   -2.9204   17.8044 C   0  0  0  0  0  0  0  0  0  0  0  0
   11.1529   -4.3028   22.1277 C   0  0  0  0  0  0  0  0  0  0  0  0
   11.1290   -4.8502   19.8052 C   0  0  0  0  0  0  0  0  0  0  0  0
   12.4329   -4.2159   24.4224 C   0  0  0  0  0  0  0  0  0  0  0  0
    3.4740   -9.0387   16.5022 C   0  0  0  0  0  0  0  0  0  0  0  0
    6.8384   -7.9290   17.5282 N   0  0  0  0  0  0  0  0  0  0  0  0
    9.4126   -5.9853   18.4899 C   0  0  0  0  0  0  0  0  0  0  0  0
    4.2064  -10.3242   18.3302 C   0  0  0  0  0  0  0  0  0  0  0  0
    9.6599   -4.1551   16.4796 N   0  0  0  0  0  0  0  0  0  0  0  0
    7.0644   -6.4612   15.7375 N   0  0  0  0  0  0  0  0  0  0  0  0
    5.3549   -9.6322   18.3190 C   0  0  0  0  0  0  0  0  0  0  0  0
   10.3704   -4.9638   18.6510 C   0  0  0  0  0  0  0  0  0  0  0  0
    5.5935   -8.6419   17.4234 C   0  0  0  0  0  0  0  0  0  0  0  0
   13.0726   -4.6648   23.3394 O   0  0  0  0  0  0  0  0  0  0  0  0
    8.5955   -6.0705   17.3996 C   0  0  0  0  0  0  0  0  0  0  0  0
    4.6223   -8.3832   16.5030 C   0  0  0  0  0  0  0  0  0  0  0  0
   12.4690   -5.2624   19.9024 C   0  0  0  0  0  0  0  0  0  0  0  0
    3.2548   -9.9919   17.4189 C   0  0  0  0  0  0  0  0  0  0  0  0
   12.4767   -4.7393   22.1790 C   0  0  0  0  0  0  0  0  0  0  0  0
    7.8593   -5.3772   15.3569 N   0  0  0  0  0  0  0  0  0  0  0  0
    7.4412   -6.9038   16.9283 C   0  0  0  0  0  0  0  0  0  0  0  0
  1 21  4  0
  1 23  4  0
  2  5  1  0
  2 13  4  0
  2 16  4  0
  3  6  4  0
  3  7  4  0
  4 13  4  0
  4 19  4  0
  4 24  4  0
  6 23  4  0
  7 16  1  0
  7 21  4  0
  8 18  1  0
  9 20  4  0
  9 22  4  0
 10 17  1  0
 10 25  1  0
 11 16  4  0
 11 19  4  0
 12 15  4  0
 12 22  4  0
 14 24  4  0
 14 25  4  0
 15 17  4  0
 17 20  4  0
 18 23  1  0
 19 25  4  0
M  END
$$$$

 Created by Python create_sdf_string function

 25 28  0  0  0  0  0  0  0  0999 V2000
   13.1533   -5.2399   21.0682 C   0  0  0  0  0  0  0  0  0  0  0  0
   10.4729   -4.0295   17.6135 C   0  0  0  0  0  0  0  0  0  0  0  0
   10.4789   -4.3641   20.9564 C   0  0  0  0  0  0  0  0  0  0  0  0
    8.7421   -5.1412   16.3650 C   0  0  0  0  0  0  0  0  0  0  0  0
   11.4353   -2.9204   17.8044 C   0  0  0  0  0  0  0  0  0  0  0  0
   11.1529   -4.3028   22.1277 C   0  0  0  0  0  0  0  0  0  0  0  0
   11.1290   -4.8502   19.8052 C   0  0  0  0  0  0  0  0  0  0  0  0
   12.4329   -4.2159   24.4224 C   0  0  0  0  0  0  0  0  0  0  0  0
    3.4740   -9.0387   16.5022 C   0  0  0  0  0  0  0  0  0  0  0  0
    6.8384   -7.9290   17.5282 N   0  0  0  0  0  0  0  0  0  0  0  0
    9.4126   -5.9853   18.4899 C   0  0  0  0  0  0  0  0  0  0  0  0
    4.2064  -10.3242   18.3302 C   0  0  0  0  0  0  0  0  0  0  0  0
    9.6599   -4.1551   16.4796 N   0  0  0  0  0  0  0  0  0  0  0  0
    7.0644   -6.4612   15.7375 N   0  0  0  0  0  0  0  0  0  0  0  0
    5.3549   -9.6322   18.3190 C   0  0  0  0  0  0  0  0  0  0  0  0
   10.3704   -4.9638   18.6510 C   0  0  0  0  0  0  0  0  0  0  0  0
    5.5935   -8.6419   17.4234 C   0  0  0  0  0  0  0  0  0  0  0  0
   13.0726   -4.6648   23.3394 O   0  0  0  0  0  0  0  0  0  0  0  0
    8.5955   -6.0705   17.3996 C   0  0  0  0  0  0  0  0  0  0  0  0
    4.6223   -8.3832   16.5030 C   0  0  0  0  0  0  0  0  0  0  0  0
   12.4690   -5.2624   19.9024 C   0  0  0  0  0  0  0  0  0  0  0  0
    3.2548   -9.9919   17.4189 C   0  0  0  0  0  0  0  0  0  0  0  0
   12.4767   -4.7393   22.1790 C   0  0  0  0  0  0  0  0  0  0  0  0
    7.8593   -5.3772   15.3569 N   0  0  0  0  0  0  0  0  0  0  0  0
    7.4412   -6.9038   16.9283 C   0  0  0  0  0  0  0  0  0  0  0  0
  1 21  4  0
  1 23  4  0
  2  5  1  0
  2 13  4  0
  2 16  4  0
  3  6  4  0
  3  7  4  0
  4 13  4  0
  4 19  4  0
  4 24  4  0
  6 23  4  0
  7 16  1  0
  7 21  4  0
  8 18  1  0
  9 20  4  0
  9 22  4  0
 10 17  1  0
 10 25  1  0
 11 16  4  0
 11 19  4  0
 12 15  4  0
 12 22  4  0
 14 24  4  0
 14 25  4  0
 15 17  4  0
 17 20  4  0
 18 23  1  0
 19 25  4  0
M  END
$$$$

 Created by Python create_sdf_string function

 25 28  0  0  0  0  0  0  0  0999 V2000
   13.1533   -5.2399   21.0682 C   0  0  0  0  0  0  0  0  0  0  0  0
   10.4729   -4.0295   17.6135 C   0  0  0  0  0  0  0  0  0  0  0  0
   10.4789   -4.3641   20.9564 C   0  0  0  0  0  0  0  0  0  0  0  0
    8.7421   -5.1412   16.3650 C   0  0  0  0  0  0  0  0  0  0  0  0
   11.4353   -2.9204   17.8044 C   0  0  0  0  0  0  0  0  0  0  0  0
   11.1529   -4.3028   22.1277 C   0  0  0  0  0  0  0  0  0  0  0  0
   11.1290   -4.8502   19.8052 C   0  0  0  0  0  0  0  0  0  0  0  0
   12.4329   -4.2159   24.4224 C   0  0  0  0  0  0  0  0  0  0  0  0
    3.4740   -9.0387   16.5022 C   0  0  0  0  0  0  0  0  0  0  0  0
    6.8384   -7.9290   17.5282 N   0  0  0  0  0  0  0  0  0  0  0  0
    9.4126   -5.9853   18.4899 C   0  0  0  0  0  0  0  0  0  0  0  0
    4.2064  -10.3242   18.3302 C   0  0  0  0  0  0  0  0  0  0  0  0
    9.6599   -4.1551   16.4796 N   0  0  0  0  0  0  0  0  0  0  0  0
    7.0644   -6.4612   15.7375 N   0  0  0  0  0  0  0  0  0  0  0  0
    5.3549   -9.6322   18.3190 C   0  0  0  0  0  0  0  0  0  0  0  0
   10.3704   -4.9638   18.6510 C   0  0  0  0  0  0  0  0  0  0  0  0
    5.5935   -8.6419   17.4234 C   0  0  0  0  0  0  0  0  0  0  0  0
   13.0726   -4.6648   23.3394 O   0  0  0  0  0  0  0  0  0  0  0  0
    8.5955   -6.0705   17.3996 C   0  0  0  0  0  0  0  0  0  0  0  0
    4.6223   -8.3832   16.5030 C   0  0  0  0  0  0  0  0  0  0  0  0
   12.4690   -5.2624   19.9024 C   0  0  0  0  0  0  0  0  0  0  0  0
    3.2548   -9.9919   17.4189 C   0  0  0  0  0  0  0  0  0  0  0  0
   12.4767   -4.7393   22.1790 C   0  0  0  0  0  0  0  0  0  0  0  0
    7.8593   -5.3772   15.3569 N   0  0  0  0  0  0  0  0  0  0  0  0
    7.4412   -6.9038   16.9283 C   0  0  0  0  0  0  0  0  0  0  0  0
  1 21  4  0
  1 23  4  0
  2  5  1  0
  2 13  4  0
  2 16  4  0
  3  6  4  0
  3  7  4  0
  4 13  4  0
  4 19  4  0
  4 24  4  0
  6 23  4  0
  7 16  1  0
  7 21  4  0
  8 18  1  0
  9 20  4  0
  9 22  4  0
 10 17  1  0
 10 25  1  0
 11 16  4  0
 11 19  4  0
 12 15  4  0
 12 22  4  0
 14 24  4  0
 14 25  4  0
 15 17  4  0
 17 20  4  0
 18 23  1  0
 19 25  4  0
M  END
$$$$

 Created by Python create_sdf_string function

 25 28  0  0  0  0  0  0  0  0999 V2000
   13.1533   -5.2399   21.0682 C   0  0  0  0  0  0  0  0  0  0  0  0
   10.4729   -4.0295   17.6135 C   0  0  0  0  0  0  0  0  0  0  0  0
   10.4789   -4.3641   20.9564 C   0  0  0  0  0  0  0  0  0  0  0  0
    8.7421   -5.1412   16.3650 C   0  0  0  0  0  0  0  0  0  0  0  0
   11.4353   -2.9204   17.8044 C   0  0  0  0  0  0  0  0  0  0  0  0
   11.1529   -4.3028   22.1277 C   0  0  0  0  0  0  0  0  0  0  0  0
   11.1290   -4.8502   19.8052 C   0  0  0  0  0  0  0  0  0  0  0  0
   12.4329   -4.2159   24.4224 C   0  0  0  0  0  0  0  0  0  0  0  0
    3.4740   -9.0387   16.5022 C   0  0  0  0  0  0  0  0  0  0  0  0
    6.8384   -7.9290   17.5282 N   0  0  0  0  0  0  0  0  0  0  0  0
    9.4126   -5.9853   18.4899 C   0  0  0  0  0  0  0  0  0  0  0  0
    4.2064  -10.3242   18.3302 C   0  0  0  0  0  0  0  0  0  0  0  0
    9.6599   -4.1551   16.4796 N   0  0  0  0  0  0  0  0  0  0  0  0
    7.0644   -6.4612   15.7375 N   0  0  0  0  0  0  0  0  0  0  0  0
    5.3549   -9.6322   18.3190 C   0  0  0  0  0  0  0  0  0  0  0  0
   10.3704   -4.9638   18.6510 C   0  0  0  0  0  0  0  0  0  0  0  0
    5.5935   -8.6419   17.4234 C   0  0  0  0  0  0  0  0  0  0  0  0
   13.0726   -4.6648   23.3394 O   0  0  0  0  0  0  0  0  0  0  0  0
    8.5955   -6.0705   17.3996 C   0  0  0  0  0  0  0  0  0  0  0  0
    4.6223   -8.3832   16.5030 C   0  0  0  0  0  0  0  0  0  0  0  0
   12.4690   -5.2624   19.9024 C   0  0  0  0  0  0  0  0  0  0  0  0
    3.2548   -9.9919   17.4189 C   0  0  0  0  0  0  0  0  0  0  0  0
   12.4767   -4.7393   22.1790 C   0  0  0  0  0  0  0  0  0  0  0  0
    7.8593   -5.3772   15.3569 N   0  0  0  0  0  0  0  0  0  0  0  0
    7.4412   -6.9038   16.9283 C   0  0  0  0  0  0  0  0  0  0  0  0
  1 21  4  0
  1 23  4  0
  2  5  1  0
  2 13  4  0
  2 16  4  0
  3  6  4  0
  3  7  4  0
  4 13  4  0
  4 19  4  0
  4 24  4  0
  6 23  4  0
  7 16  1  0
  7 21  4  0
  8 18  1  0
  9 20  4  0
  9 22  4  0
 10 17  1  0
 10 25  1  0
 11 16  4  0
 11 19  4  0
 12 15  4  0
 12 22  4  0
 14 24  4  0
 14 25  4  0
 15 17  4  0
 17 20  4  0
 18 23  1  0
 19 25  4  0
M  END
$$$$

 Created by Python create_sdf_string function

 25 28  0  0  0  0  0  0  0  0999 V2000
   13.1533   -5.2399   21.0682 C   0  0  0  0  0  0  0  0  0  0  0  0
   10.4729   -4.0295   17.6135 C   0  0  0  0  0  0  0  0  0  0  0  0
   10.4789   -4.3641   20.9564 C   0  0  0  0  0  0  0  0  0  0  0  0
    8.7421   -5.1412   16.3650 C   0  0  0  0  0  0  0  0  0  0  0  0
   11.4353   -2.9204   17.8044 C   0  0  0  0  0  0  0  0  0  0  0  0
   11.1529   -4.3028   22.1277 C   0  0  0  0  0  0  0  0  0  0  0  0
   11.1290   -4.8502   19.8052 C   0  0  0  0  0  0  0  0  0  0  0  0
   12.4329   -4.2159   24.4224 C   0  0  0  0  0  0  0  0  0  0  0  0
    3.4740   -9.0387   16.5022 C   0  0  0  0  0  0  0  0  0  0  0  0
    6.8384   -7.9290   17.5282 N   0  0  0  0  0  0  0  0  0  0  0  0
    9.4126   -5.9853   18.4899 C   0  0  0  0  0  0  0  0  0  0  0  0
    4.2064  -10.3242   18.3302 C   0  0  0  0  0  0  0  0  0  0  0  0
    9.6599   -4.1551   16.4796 N   0  0  0  0  0  0  0  0  0  0  0  0
    7.0644   -6.4612   15.7375 N   0  0  0  0  0  0  0  0  0  0  0  0
    5.3549   -9.6322   18.3190 C   0  0  0  0  0  0  0  0  0  0  0  0
   10.3704   -4.9638   18.6510 C   0  0  0  0  0  0  0  0  0  0  0  0
    5.5935   -8.6419   17.4234 C   0  0  0  0  0  0  0  0  0  0  0  0
   13.0726   -4.6648   23.3394 O   0  0  0  0  0  0  0  0  0  0  0  0
    8.5955   -6.0705   17.3996 C   0  0  0  0  0  0  0  0  0  0  0  0
    4.6223   -8.3832   16.5030 C   0  0  0  0  0  0  0  0  0  0  0  0
   12.4690   -5.2624   19.9024 C   0  0  0  0  0  0  0  0  0  0  0  0
    3.2548   -9.9919   17.4189 C   0  0  0  0  0  0  0  0  0  0  0  0
   12.4767   -4.7393   22.1790 C   0  0  0  0  0  0  0  0  0  0  0  0
    7.8593   -5.3772   15.3569 N   0  0  0  0  0  0  0  0  0  0  0  0
    7.4412   -6.9038   16.9283 C   0  0  0  0  0  0  0  0  0  0  0  0
  1 21  4  0
  1 23  4  0
  2  5  1  0
  2 13  4  0
  2 16  4  0
  3  6  4  0
  3  7  4  0
  4 13  4  0
  4 19  4  0
  4 24  4  0
  6 23  4  0
  7 16  1  0
  7 21  4  0
  8 18  1  0
  9 20  4  0
  9 22  4  0
 10 17  1  0
 10 25  1  0
 11 16  4  0
 11 19  4  0
 12 15  4  0
 12 22  4  0
 14 24  4  0
 14 25  4  0
 15 17  4  0
 17 20  4  0
 18 23  1  0
 19 25  4  0
M  END
$$$$

 Created by Python create_sdf_string function

 25 28  0  0  0  0  0  0  0  0999 V2000
   13.1533   -5.2399   21.0682 C   0  0  0  0  0  0  0  0  0  0  0  0
   10.4729   -4.0295   17.6135 C   0  0  0  0  0  0  0  0  0  0  0  0
   10.4789   -4.3641   20.9564 C   0  0  0  0  0  0  0  0  0  0  0  0
    8.7421   -5.1412   16.3650 C   0  0  0  0  0  0  0  0  0  0  0  0
   11.4353   -2.9204   17.8044 C   0  0  0  0  0  0  0  0  0  0  0  0
   11.1529   -4.3028   22.1277 C   0  0  0  0  0  0  0  0  0  0  0  0
   11.1290   -4.8502   19.8052 C   0  0  0  0  0  0  0  0  0  0  0  0
   12.4329   -4.2159   24.4224 C   0  0  0  0  0  0  0  0  0  0  0  0
    3.4740   -9.0387   16.5022 C   0  0  0  0  0  0  0  0  0  0  0  0
    6.8384   -7.9290   17.5282 N   0  0  0  0  0  0  0  0  0  0  0  0
    9.4126   -5.9853   18.4899 C   0  0  0  0  0  0  0  0  0  0  0  0
    4.2064  -10.3242   18.3302 C   0  0  0  0  0  0  0  0  0  0  0  0
    9.6599   -4.1551   16.4796 N   0  0  0  0  0  0  0  0  0  0  0  0
    7.0644   -6.4612   15.7375 N   0  0  0  0  0  0  0  0  0  0  0  0
    5.3549   -9.6322   18.3190 C   0  0  0  0  0  0  0  0  0  0  0  0
   10.3704   -4.9638   18.6510 C   0  0  0  0  0  0  0  0  0  0  0  0
    5.5935   -8.6419   17.4234 C   0  0  0  0  0  0  0  0  0  0  0  0
   13.0726   -4.6648   23.3394 O   0  0  0  0  0  0  0  0  0  0  0  0
    8.5955   -6.0705   17.3996 C   0  0  0  0  0  0  0  0  0  0  0  0
    4.6223   -8.3832   16.5030 C   0  0  0  0  0  0  0  0  0  0  0  0
   12.4690   -5.2624   19.9024 C   0  0  0  0  0  0  0  0  0  0  0  0
    3.2548   -9.9919   17.4189 C   0  0  0  0  0  0  0  0  0  0  0  0
   12.4767   -4.7393   22.1790 C   0  0  0  0  0  0  0  0  0  0  0  0
    7.8593   -5.3772   15.3569 N   0  0  0  0  0  0  0  0  0  0  0  0
    7.4412   -6.9038   16.9283 C   0  0  0  0  0  0  0  0  0  0  0  0
  1 21  4  0
  1 23  4  0
  2  5  1  0
  2 13  4  0
  2 16  4  0
  3  6  4  0
  3  7  4  0
  4 13  4  0
  4 19  4  0
  4 24  4  0
  6 23  4  0
  7 16  1  0
  7 21  4  0
  8 18  1  0
  9 20  4  0
  9 22  4  0
 10 17  1  0
 10 25  1  0
 11 16  4  0
 11 19  4  0
 12 15  4  0
 12 22  4  0
 14 24  4  0
 14 25  4  0
 15 17  4  0
 17 20  4  0
 18 23  1  0
 19 25  4  0
M  END
$$$$

 Created by Python create_sdf_string function

 25 28  0  0  0  0  0  0  0  0999 V2000
   13.1533   -5.2399   21.0682 C   0  0  0  0  0  0  0  0  0  0  0  0
   10.4729   -4.0295   17.6135 C   0  0  0  0  0  0  0  0  0  0  0  0
   10.4789   -4.3641   20.9564 C   0  0  0  0  0  0  0  0  0  0  0  0
    8.7421   -5.1412   16.3650 C   0  0  0  0  0  0  0  0  0  0  0  0
   11.4353   -2.9204   17.8044 C   0  0  0  0  0  0  0  0  0  0  0  0
   11.1529   -4.3028   22.1277 C   0  0  0  0  0  0  0  0  0  0  0  0
   11.1290   -4.8502   19.8052 C   0  0  0  0  0  0  0  0  0  0  0  0
   12.4329   -4.2159   24.4224 C   0  0  0  0  0  0  0  0  0  0  0  0
    3.4740   -9.0387   16.5022 C   0  0  0  0  0  0  0  0  0  0  0  0
    6.8384   -7.9290   17.5282 N   0  0  0  0  0  0  0  0  0  0  0  0
    9.4126   -5.9853   18.4899 C   0  0  0  0  0  0  0  0  0  0  0  0
    4.2064  -10.3242   18.3302 C   0  0  0  0  0  0  0  0  0  0  0  0
    9.6599   -4.1551   16.4796 N   0  0  0  0  0  0  0  0  0  0  0  0
    7.0644   -6.4612   15.7375 N   0  0  0  0  0  0  0  0  0  0  0  0
    5.3549   -9.6322   18.3190 C   0  0  0  0  0  0  0  0  0  0  0  0
   10.3704   -4.9638   18.6510 C   0  0  0  0  0  0  0  0  0  0  0  0
    5.5935   -8.6419   17.4234 C   0  0  0  0  0  0  0  0  0  0  0  0
   13.0726   -4.6648   23.3394 O   0  0  0  0  0  0  0  0  0  0  0  0
    8.5955   -6.0705   17.3996 C   0  0  0  0  0  0  0  0  0  0  0  0
    4.6223   -8.3832   16.5030 C   0  0  0  0  0  0  0  0  0  0  0  0
   12.4690   -5.2624   19.9024 C   0  0  0  0  0  0  0  0  0  0  0  0
    3.2548   -9.9919   17.4189 C   0  0  0  0  0  0  0  0  0  0  0  0
   12.4767   -4.7393   22.1790 C   0  0  0  0  0  0  0  0  0  0  0  0
    7.8593   -5.3772   15.3569 N   0  0  0  0  0  0  0  0  0  0  0  0
    7.4412   -6.9038   16.9283 C   0  0  0  0  0  0  0  0  0  0  0  0
  1 21  4  0
  1 23  4  0
  2  5  1  0
  2 13  4  0
  2 16  4  0
  3  6  4  0
  3  7  4  0
  4 13  4  0
  4 19  4  0
  4 24  4  0
  6 23  4  0
  7 16  1  0
  7 21  4  0
  8 18  1  0
  9 20  4  0
  9 22  4  0
 10 17  1  0
 10 25  1  0
 11 16  4  0
 11 19  4  0
 12 15  4  0
 12 22  4  0
 14 24  4  0
 14 25  4  0
 15 17  4  0
 17 20  4  0
 18 23  1  0
 19 25  4  0
M  END
$$$$

 Created by Python create_sdf_string function

 25 28  0  0  0  0  0  0  0  0999 V2000
   13.1533   -5.2399   21.0682 C   0  0  0  0  0  0  0  0  0  0  0  0
   10.4729   -4.0295   17.6135 C   0  0  0  0  0  0  0  0  0  0  0  0
   10.4789   -4.3641   20.9564 C   0  0  0  0  0  0  0  0  0  0  0  0
    8.7421   -5.1412   16.3650 C   0  0  0  0  0  0  0  0  0  0  0  0
   11.4353   -2.9204   17.8044 C   0  0  0  0  0  0  0  0  0  0  0  0
   11.1529   -4.3028   22.1277 C   0  0  0  0  0  0  0  0  0  0  0  0
   11.1290   -4.8502   19.8052 C   0  0  0  0  0  0  0  0  0  0  0  0
   12.4329   -4.2159   24.4224 C   0  0  0  0  0  0  0  0  0  0  0  0
    3.4740   -9.0387   16.5022 C   0  0  0  0  0  0  0  0  0  0  0  0
    6.8384   -7.9290   17.5282 N   0  0  0  0  0  0  0  0  0  0  0  0
    9.4126   -5.9853   18.4899 C   0  0  0  0  0  0  0  0  0  0  0  0
    4.2064  -10.3242   18.3302 C   0  0  0  0  0  0  0  0  0  0  0  0
    9.6599   -4.1551   16.4796 N   0  0  0  0  0  0  0  0  0  0  0  0
    7.0644   -6.4612   15.7375 N   0  0  0  0  0  0  0  0  0  0  0  0
    5.3549   -9.6322   18.3190 C   0  0  0  0  0  0  0  0  0  0  0  0
   10.3704   -4.9638   18.6510 C   0  0  0  0  0  0  0  0  0  0  0  0
    5.5935   -8.6419   17.4234 C   0  0  0  0  0  0  0  0  0  0  0  0
   13.0726   -4.6648   23.3394 O   0  0  0  0  0  0  0  0  0  0  0  0
    8.5955   -6.0705   17.3996 C   0  0  0  0  0  0  0  0  0  0  0  0
    4.6223   -8.3832   16.5030 C   0  0  0  0  0  0  0  0  0  0  0  0
   12.4690   -5.2624   19.9024 C   0  0  0  0  0  0  0  0  0  0  0  0
    3.2548   -9.9919   17.4189 C   0  0  0  0  0  0  0  0  0  0  0  0
   12.4767   -4.7393   22.1790 C   0  0  0  0  0  0  0  0  0  0  0  0
    7.8593   -5.3772   15.3569 N   0  0  0  0  0  0  0  0  0  0  0  0
    7.4412   -6.9038   16.9283 C   0  0  0  0  0  0  0  0  0  0  0  0
  1 21  4  0
  1 23  4  0
  2  5  1  0
  2 13  4  0
  2 16  4  0
  3  6  4  0
  3  7  4  0
  4 13  4  0
  4 19  4  0
  4 24  4  0
  6 23  4  0
  7 16  1  0
  7 21  4  0
  8 18  1  0
  9 20  4  0
  9 22  4  0
 10 17  1  0
 10 25  1  0
 11 16  4  0
 11 19  4  0
 12 15  4  0
 12 22  4  0
 14 24  4  0
 14 25  4  0
 15 17  4  0
 17 20  4  0
 18 23  1  0
 19 25  4  0
M  END
$$$$

 Created by Python create_sdf_string function

 25 28  0  0  0  0  0  0  0  0999 V2000
   13.1533   -5.2399   21.0682 C   0  0  0  0  0  0  0  0  0  0  0  0
   10.4729   -4.0295   17.6135 C   0  0  0  0  0  0  0  0  0  0  0  0
   10.4789   -4.3641   20.9564 C   0  0  0  0  0  0  0  0  0  0  0  0
    8.7421   -5.1412   16.3650 C   0  0  0  0  0  0  0  0  0  0  0  0
   11.4353   -2.9204   17.8044 C   0  0  0  0  0  0  0  0  0  0  0  0
   11.1529   -4.3028   22.1277 C   0  0  0  0  0  0  0  0  0  0  0  0
   11.1290   -4.8502   19.8052 C   0  0  0  0  0  0  0  0  0  0  0  0
   12.4329   -4.2159   24.4224 C   0  0  0  0  0  0  0  0  0  0  0  0
    3.4740   -9.0387   16.5022 C   0  0  0  0  0  0  0  0  0  0  0  0
    6.8384   -7.9290   17.5282 N   0  0  0  0  0  0  0  0  0  0  0  0
    9.4126   -5.9853   18.4899 C   0  0  0  0  0  0  0  0  0  0  0  0
    4.2064  -10.3242   18.3302 C   0  0  0  0  0  0  0  0  0  0  0  0
    9.6599   -4.1551   16.4796 N   0  0  0  0  0  0  0  0  0  0  0  0
    7.0644   -6.4612   15.7375 N   0  0  0  0  0  0  0  0  0  0  0  0
    5.3549   -9.6322   18.3190 C   0  0  0  0  0  0  0  0  0  0  0  0
   10.3704   -4.9638   18.6510 C   0  0  0  0  0  0  0  0  0  0  0  0
    5.5935   -8.6419   17.4234 C   0  0  0  0  0  0  0  0  0  0  0  0
   13.0726   -4.6648   23.3394 O   0  0  0  0  0  0  0  0  0  0  0  0
    8.5955   -6.0705   17.3996 C   0  0  0  0  0  0  0  0  0  0  0  0
    4.6223   -8.3832   16.5030 C   0  0  0  0  0  0  0  0  0  0  0  0
   12.4690   -5.2624   19.9024 C   0  0  0  0  0  0  0  0  0  0  0  0
    3.2548   -9.9919   17.4189 C   0  0  0  0  0  0  0  0  0  0  0  0
   12.4767   -4.7393   22.1790 C   0  0  0  0  0  0  0  0  0  0  0  0
    7.8593   -5.3772   15.3569 N   0  0  0  0  0  0  0  0  0  0  0  0
    7.4412   -6.9038   16.9283 C   0  0  0  0  0  0  0  0  0  0  0  0
  1 21  4  0
  1 23  4  0
  2  5  1  0
  2 13  4  0
  2 16  4  0
  3  6  4  0
  3  7  4  0
  4 13  4  0
  4 19  4  0
  4 24  4  0
  6 23  4  0
  7 16  1  0
  7 21  4  0
  8 18  1  0
  9 20  4  0
  9 22  4  0
 10 17  1  0
 10 25  1  0
 11 16  4  0
 11 19  4  0
 12 15  4  0
 12 22  4  0
 14 24  4  0
 14 25  4  0
 15 17  4  0
 17 20  4  0
 18 23  1  0
 19 25  4  0
M  END
$$$$

 Created by Python create_sdf_string function

 25 28  0  0  0  0  0  0  0  0999 V2000
   13.1533   -5.2399   21.0682 C   0  0  0  0  0  0  0  0  0  0  0  0
   10.4729   -4.0295   17.6135 C   0  0  0  0  0  0  0  0  0  0  0  0
   10.4789   -4.3641   20.9564 C   0  0  0  0  0  0  0  0  0  0  0  0
    8.7421   -5.1412   16.3650 C   0  0  0  0  0  0  0  0  0  0  0  0
   11.4353   -2.9204   17.8044 C   0  0  0  0  0  0  0  0  0  0  0  0
   11.1529   -4.3028   22.1277 C   0  0  0  0  0  0  0  0  0  0  0  0
   11.1290   -4.8502   19.8052 C   0  0  0  0  0  0  0  0  0  0  0  0
   12.4329   -4.2159   24.4224 C   0  0  0  0  0  0  0  0  0  0  0  0
    3.4740   -9.0387   16.5022 C   0  0  0  0  0  0  0  0  0  0  0  0
    6.8384   -7.9290   17.5282 N   0  0  0  0  0  0  0  0  0  0  0  0
    9.4126   -5.9853   18.4899 C   0  0  0  0  0  0  0  0  0  0  0  0
    4.2064  -10.3242   18.3302 C   0  0  0  0  0  0  0  0  0  0  0  0
    9.6599   -4.1551   16.4796 N   0  0  0  0  0  0  0  0  0  0  0  0
    7.0644   -6.4612   15.7375 N   0  0  0  0  0  0  0  0  0  0  0  0
    5.3549   -9.6322   18.3190 C   0  0  0  0  0  0  0  0  0  0  0  0
   10.3704   -4.9638   18.6510 C   0  0  0  0  0  0  0  0  0  0  0  0
    5.5935   -8.6419   17.4234 C   0  0  0  0  0  0  0  0  0  0  0  0
   13.0726   -4.6648   23.3394 O   0  0  0  0  0  0  0  0  0  0  0  0
    8.5955   -6.0705   17.3996 C   0  0  0  0  0  0  0  0  0  0  0  0
    4.6223   -8.3832   16.5030 C   0  0  0  0  0  0  0  0  0  0  0  0
   12.4690   -5.2624   19.9024 C   0  0  0  0  0  0  0  0  0  0  0  0
    3.2548   -9.9919   17.4189 C   0  0  0  0  0  0  0  0  0  0  0  0
   12.4767   -4.7393   22.1790 C   0  0  0  0  0  0  0  0  0  0  0  0
    7.8593   -5.3772   15.3569 N   0  0  0  0  0  0  0  0  0  0  0  0
    7.4412   -6.9038   16.9283 C   0  0  0  0  0  0  0  0  0  0  0  0
  1 21  4  0
  1 23  4  0
  2  5  1  0
  2 13  4  0
  2 16  4  0
  3  6  4  0
  3  7  4  0
  4 13  4  0
  4 19  4  0
  4 24  4  0
  6 23  4  0
  7 16  1  0
  7 21  4  0
  8 18  1  0
  9 20  4  0
  9 22  4  0
 10 17  1  0
 10 25  1  0
 11 16  4  0
 11 19  4  0
 12 15  4  0
 12 22  4  0
 14 24  4  0
 14 25  4  0
 15 17  4  0
 17 20  4  0
 18 23  1  0
 19 25  4  0
M  END
$$$$

 Created by Python create_sdf_string function

 25 28  0  0  0  0  0  0  0  0999 V2000
   13.1533   -5.2399   21.0682 C   0  0  0  0  0  0  0  0  0  0  0  0
   10.4729   -4.0295   17.6135 C   0  0  0  0  0  0  0  0  0  0  0  0
   10.4789   -4.3641   20.9564 C   0  0  0  0  0  0  0  0  0  0  0  0
    8.7421   -5.1412   16.3650 C   0  0  0  0  0  0  0  0  0  0  0  0
   11.4353   -2.9204   17.8044 C   0  0  0  0  0  0  0  0  0  0  0  0
   11.1529   -4.3028   22.1277 C   0  0  0  0  0  0  0  0  0  0  0  0
   11.1290   -4.8502   19.8052 C   0  0  0  0  0  0  0  0  0  0  0  0
   12.4329   -4.2159   24.4224 C   0  0  0  0  0  0  0  0  0  0  0  0
    3.4740   -9.0387   16.5022 C   0  0  0  0  0  0  0  0  0  0  0  0
    6.8384   -7.9290   17.5282 N   0  0  0  0  0  0  0  0  0  0  0  0
    9.4126   -5.9853   18.4899 C   0  0  0  0  0  0  0  0  0  0  0  0
    4.2064  -10.3242   18.3302 C   0  0  0  0  0  0  0  0  0  0  0  0
    9.6599   -4.1551   16.4796 N   0  0  0  0  0  0  0  0  0  0  0  0
    7.0644   -6.4612   15.7375 N   0  0  0  0  0  0  0  0  0  0  0  0
    5.3549   -9.6322   18.3190 C   0  0  0  0  0  0  0  0  0  0  0  0
   10.3704   -4.9638   18.6510 C   0  0  0  0  0  0  0  0  0  0  0  0
    5.5935   -8.6419   17.4234 C   0  0  0  0  0  0  0  0  0  0  0  0
   13.0726   -4.6648   23.3394 O   0  0  0  0  0  0  0  0  0  0  0  0
    8.5955   -6.0705   17.3996 C   0  0  0  0  0  0  0  0  0  0  0  0
    4.6223   -8.3832   16.5030 C   0  0  0  0  0  0  0  0  0  0  0  0
   12.4690   -5.2624   19.9024 C   0  0  0  0  0  0  0  0  0  0  0  0
    3.2548   -9.9919   17.4189 C   0  0  0  0  0  0  0  0  0  0  0  0
   12.4767   -4.7393   22.1790 C   0  0  0  0  0  0  0  0  0  0  0  0
    7.8593   -5.3772   15.3569 N   0  0  0  0  0  0  0  0  0  0  0  0
    7.4412   -6.9038   16.9283 C   0  0  0  0  0  0  0  0  0  0  0  0
  1 21  4  0
  1 23  4  0
  2  5  1  0
  2 13  4  0
  2 16  4  0
  3  6  4  0
  3  7  4  0
  4 13  4  0
  4 19  4  0
  4 24  4  0
  6 23  4  0
  7 16  1  0
  7 21  4  0
  8 18  1  0
  9 20  4  0
  9 22  4  0
 10 17  1  0
 10 25  1  0
 11 16  4  0
 11 19  4  0
 12 15  4  0
 12 22  4  0
 14 24  4  0
 14 25  4  0
 15 17  4  0
 17 20  4  0
 18 23  1  0
 19 25  4  0
M  END
$$$$

 Created by Python create_sdf_string function

 25 28  0  0  0  0  0  0  0  0999 V2000
   13.1533   -5.2399   21.0682 C   0  0  0  0  0  0  0  0  0  0  0  0
   10.4729   -4.0295   17.6135 C   0  0  0  0  0  0  0  0  0  0  0  0
   10.4789   -4.3641   20.9564 C   0  0  0  0  0  0  0  0  0  0  0  0
    8.7421   -5.1412   16.3650 C   0  0  0  0  0  0  0  0  0  0  0  0
   11.4353   -2.9204   17.8044 C   0  0  0  0  0  0  0  0  0  0  0  0
   11.1529   -4.3028   22.1277 C   0  0  0  0  0  0  0  0  0  0  0  0
   11.1290   -4.8502   19.8052 C   0  0  0  0  0  0  0  0  0  0  0  0
   12.4329   -4.2159   24.4224 C   0  0  0  0  0  0  0  0  0  0  0  0
    3.4740   -9.0387   16.5022 C   0  0  0  0  0  0  0  0  0  0  0  0
    6.8384   -7.9290   17.5282 N   0  0  0  0  0  0  0  0  0  0  0  0
    9.4126   -5.9853   18.4899 C   0  0  0  0  0  0  0  0  0  0  0  0
    4.2064  -10.3242   18.3302 C   0  0  0  0  0  0  0  0  0  0  0  0
    9.6599   -4.1551   16.4796 N   0  0  0  0  0  0  0  0  0  0  0  0
    7.0644   -6.4612   15.7375 N   0  0  0  0  0  0  0  0  0  0  0  0
    5.3549   -9.6322   18.3190 C   0  0  0  0  0  0  0  0  0  0  0  0
   10.3704   -4.9638   18.6510 C   0  0  0  0  0  0  0  0  0  0  0  0
    5.5935   -8.6419   17.4234 C   0  0  0  0  0  0  0  0  0  0  0  0
   13.0726   -4.6648   23.3394 O   0  0  0  0  0  0  0  0  0  0  0  0
    8.5955   -6.0705   17.3996 C   0  0  0  0  0  0  0  0  0  0  0  0
    4.6223   -8.3832   16.5030 C   0  0  0  0  0  0  0  0  0  0  0  0
   12.4690   -5.2624   19.9024 C   0  0  0  0  0  0  0  0  0  0  0  0
    3.2548   -9.9919   17.4189 C   0  0  0  0  0  0  0  0  0  0  0  0
   12.4767   -4.7393   22.1790 C   0  0  0  0  0  0  0  0  0  0  0  0
    7.8593   -5.3772   15.3569 N   0  0  0  0  0  0  0  0  0  0  0  0
    7.4412   -6.9038   16.9283 C   0  0  0  0  0  0  0  0  0  0  0  0
  1 21  4  0
  1 23  4  0
  2  5  1  0
  2 13  4  0
  2 16  4  0
  3  6  4  0
  3  7  4  0
  4 13  4  0
  4 19  4  0
  4 24  4  0
  6 23  4  0
  7 16  1  0
  7 21  4  0
  8 18  1  0
  9 20  4  0
  9 22  4  0
 10 17  1  0
 10 25  1  0
 11 16  4  0
 11 19  4  0
 12 15  4  0
 12 22  4  0
 14 24  4  0
 14 25  4  0
 15 17  4  0
 17 20  4  0
 18 23  1  0
 19 25  4  0
M  END
$$$$

 Created by Python create_sdf_string function

 25 28  0  0  0  0  0  0  0  0999 V2000
   13.1533   -5.2399   21.0682 C   0  0  0  0  0  0  0  0  0  0  0  0
   10.4729   -4.0295   17.6135 C   0  0  0  0  0  0  0  0  0  0  0  0
   10.4789   -4.3641   20.9564 C   0  0  0  0  0  0  0  0  0  0  0  0
    8.7421   -5.1412   16.3650 C   0  0  0  0  0  0  0  0  0  0  0  0
   11.4353   -2.9204   17.8044 C   0  0  0  0  0  0  0  0  0  0  0  0
   11.1529   -4.3028   22.1277 C   0  0  0  0  0  0  0  0  0  0  0  0
   11.1290   -4.8502   19.8052 C   0  0  0  0  0  0  0  0  0  0  0  0
   12.4329   -4.2159   24.4224 C   0  0  0  0  0  0  0  0  0  0  0  0
    3.4740   -9.0387   16.5022 C   0  0  0  0  0  0  0  0  0  0  0  0
    6.8384   -7.9290   17.5282 N   0  0  0  0  0  0  0  0  0  0  0  0
    9.4126   -5.9853   18.4899 C   0  0  0  0  0  0  0  0  0  0  0  0
    4.2064  -10.3242   18.3302 C   0  0  0  0  0  0  0  0  0  0  0  0
    9.6599   -4.1551   16.4796 N   0  0  0  0  0  0  0  0  0  0  0  0
    7.0644   -6.4612   15.7375 N   0  0  0  0  0  0  0  0  0  0  0  0
    5.3549   -9.6322   18.3190 C   0  0  0  0  0  0  0  0  0  0  0  0
   10.3704   -4.9638   18.6510 C   0  0  0  0  0  0  0  0  0  0  0  0
    5.5935   -8.6419   17.4234 C   0  0  0  0  0  0  0  0  0  0  0  0
   13.0726   -4.6648   23.3394 O   0  0  0  0  0  0  0  0  0  0  0  0
    8.5955   -6.0705   17.3996 C   0  0  0  0  0  0  0  0  0  0  0  0
    4.6223   -8.3832   16.5030 C   0  0  0  0  0  0  0  0  0  0  0  0
   12.4690   -5.2624   19.9024 C   0  0  0  0  0  0  0  0  0  0  0  0
    3.2548   -9.9919   17.4189 C   0  0  0  0  0  0  0  0  0  0  0  0
   12.4767   -4.7393   22.1790 C   0  0  0  0  0  0  0  0  0  0  0  0
    7.8593   -5.3772   15.3569 N   0  0  0  0  0  0  0  0  0  0  0  0
    7.4412   -6.9038   16.9283 C   0  0  0  0  0  0  0  0  0  0  0  0
  1 21  4  0
  1 23  4  0
  2  5  1  0
  2 13  4  0
  2 16  4  0
  3  6  4  0
  3  7  4  0
  4 13  4  0
  4 19  4  0
  4 24  4  0
  6 23  4  0
  7 16  1  0
  7 21  4  0
  8 18  1  0
  9 20  4  0
  9 22  4  0
 10 17  1  0
 10 25  1  0
 11 16  4  0
 11 19  4  0
 12 15  4  0
 12 22  4  0
 14 24  4  0
 14 25  4  0
 15 17  4  0
 17 20  4  0
 18 23  1  0
 19 25  4  0
M  END
$$$$

 Created by Python create_sdf_string function

 25 28  0  0  0  0  0  0  0  0999 V2000
   13.1533   -5.2399   21.0682 C   0  0  0  0  0  0  0  0  0  0  0  0
   10.4729   -4.0295   17.6135 C   0  0  0  0  0  0  0  0  0  0  0  0
   10.4789   -4.3641   20.9564 C   0  0  0  0  0  0  0  0  0  0  0  0
    8.7421   -5.1412   16.3650 C   0  0  0  0  0  0  0  0  0  0  0  0
   11.4353   -2.9204   17.8044 C   0  0  0  0  0  0  0  0  0  0  0  0
   11.1529   -4.3028   22.1277 C   0  0  0  0  0  0  0  0  0  0  0  0
   11.1290   -4.8502   19.8052 C   0  0  0  0  0  0  0  0  0  0  0  0
   12.4329   -4.2159   24.4224 C   0  0  0  0  0  0  0  0  0  0  0  0
    3.4740   -9.0387   16.5022 C   0  0  0  0  0  0  0  0  0  0  0  0
    6.8384   -7.9290   17.5282 N   0  0  0  0  0  0  0  0  0  0  0  0
    9.4126   -5.9853   18.4899 C   0  0  0  0  0  0  0  0  0  0  0  0
    4.2064  -10.3242   18.3302 C   0  0  0  0  0  0  0  0  0  0  0  0
    9.6599   -4.1551   16.4796 N   0  0  0  0  0  0  0  0  0  0  0  0
    7.0644   -6.4612   15.7375 N   0  0  0  0  0  0  0  0  0  0  0  0
    5.3549   -9.6322   18.3190 C   0  0  0  0  0  0  0  0  0  0  0  0
   10.3704   -4.9638   18.6510 C   0  0  0  0  0  0  0  0  0  0  0  0
    5.5935   -8.6419   17.4234 C   0  0  0  0  0  0  0  0  0  0  0  0
   13.0726   -4.6648   23.3394 O   0  0  0  0  0  0  0  0  0  0  0  0
    8.5955   -6.0705   17.3996 C   0  0  0  0  0  0  0  0  0  0  0  0
    4.6223   -8.3832   16.5030 C   0  0  0  0  0  0  0  0  0  0  0  0
   12.4690   -5.2624   19.9024 C   0  0  0  0  0  0  0  0  0  0  0  0
    3.2548   -9.9919   17.4189 C   0  0  0  0  0  0  0  0  0  0  0  0
   12.4767   -4.7393   22.1790 C   0  0  0  0  0  0  0  0  0  0  0  0
    7.8593   -5.3772   15.3569 N   0  0  0  0  0  0  0  0  0  0  0  0
    7.4412   -6.9038   16.9283 C   0  0  0  0  0  0  0  0  0  0  0  0
  1 21  4  0
  1 23  4  0
  2  5  1  0
  2 13  4  0
  2 16  4  0
  3  6  4  0
  3  7  4  0
  4 13  4  0
  4 19  4  0
  4 24  4  0
  6 23  4  0
  7 16  1  0
  7 21  4  0
  8 18  1  0
  9 20  4  0
  9 22  4  0
 10 17  1  0
 10 25  1  0
 11 16  4  0
 11 19  4  0
 12 15  4  0
 12 22  4  0
 14 24  4  0
 14 25  4  0
 15 17  4  0
 17 20  4  0
 18 23  1  0
 19 25  4  0
M  END
$$$$

 Created by Python create_sdf_string function

 25 28  0  0  0  0  0  0  0  0999 V2000
   13.1533   -5.2399   21.0682 C   0  0  0  0  0  0  0  0  0  0  0  0
   10.4729   -4.0295   17.6135 C   0  0  0  0  0  0  0  0  0  0  0  0
   10.4789   -4.3641   20.9564 C   0  0  0  0  0  0  0  0  0  0  0  0
    8.7421   -5.1412   16.3650 C   0  0  0  0  0  0  0  0  0  0  0  0
   11.4353   -2.9204   17.8044 C   0  0  0  0  0  0  0  0  0  0  0  0
   11.1529   -4.3028   22.1277 C   0  0  0  0  0  0  0  0  0  0  0  0
   11.1290   -4.8502   19.8052 C   0  0  0  0  0  0  0  0  0  0  0  0
   12.4329   -4.2159   24.4224 C   0  0  0  0  0  0  0  0  0  0  0  0
    3.4740   -9.0387   16.5022 C   0  0  0  0  0  0  0  0  0  0  0  0
    6.8384   -7.9290   17.5282 N   0  0  0  0  0  0  0  0  0  0  0  0
    9.4126   -5.9853   18.4899 C   0  0  0  0  0  0  0  0  0  0  0  0
    4.2064  -10.3242   18.3302 C   0  0  0  0  0  0  0  0  0  0  0  0
    9.6599   -4.1551   16.4796 N   0  0  0  0  0  0  0  0  0  0  0  0
    7.0644   -6.4612   15.7375 N   0  0  0  0  0  0  0  0  0  0  0  0
    5.3549   -9.6322   18.3190 C   0  0  0  0  0  0  0  0  0  0  0  0
   10.3704   -4.9638   18.6510 C   0  0  0  0  0  0  0  0  0  0  0  0
    5.5935   -8.6419   17.4234 C   0  0  0  0  0  0  0  0  0  0  0  0
   13.0726   -4.6648   23.3394 O   0  0  0  0  0  0  0  0  0  0  0  0
    8.5955   -6.0705   17.3996 C   0  0  0  0  0  0  0  0  0  0  0  0
    4.6223   -8.3832   16.5030 C   0  0  0  0  0  0  0  0  0  0  0  0
   12.4690   -5.2624   19.9024 C   0  0  0  0  0  0  0  0  0  0  0  0
    3.2548   -9.9919   17.4189 C   0  0  0  0  0  0  0  0  0  0  0  0
   12.4767   -4.7393   22.1790 C   0  0  0  0  0  0  0  0  0  0  0  0
    7.8593   -5.3772   15.3569 N   0  0  0  0  0  0  0  0  0  0  0  0
    7.4412   -6.9038   16.9283 C   0  0  0  0  0  0  0  0  0  0  0  0
  1 21  4  0
  1 23  4  0
  2  5  1  0
  2 13  4  0
  2 16  4  0
  3  6  4  0
  3  7  4  0
  4 13  4  0
  4 19  4  0
  4 24  4  0
  6 23  4  0
  7 16  1  0
  7 21  4  0
  8 18  1  0
  9 20  4  0
  9 22  4  0
 10 17  1  0
 10 25  1  0
 11 16  4  0
 11 19  4  0
 12 15  4  0
 12 22  4  0
 14 24  4  0
 14 25  4  0
 15 17  4  0
 17 20  4  0
 18 23  1  0
 19 25  4  0
M  END
$$$$

 Created by Python create_sdf_string function

 25 28  0  0  0  0  0  0  0  0999 V2000
   13.1533   -5.2399   21.0682 C   0  0  0  0  0  0  0  0  0  0  0  0
   10.4729   -4.0295   17.6135 C   0  0  0  0  0  0  0  0  0  0  0  0
   10.4789   -4.3641   20.9564 C   0  0  0  0  0  0  0  0  0  0  0  0
    8.7421   -5.1412   16.3650 C   0  0  0  0  0  0  0  0  0  0  0  0
   11.4353   -2.9204   17.8044 C   0  0  0  0  0  0  0  0  0  0  0  0
   11.1529   -4.3028   22.1277 C   0  0  0  0  0  0  0  0  0  0  0  0
   11.1290   -4.8502   19.8052 C   0  0  0  0  0  0  0  0  0  0  0  0
   12.4329   -4.2159   24.4224 C   0  0  0  0  0  0  0  0  0  0  0  0
    3.4740   -9.0387   16.5022 C   0  0  0  0  0  0  0  0  0  0  0  0
    6.8384   -7.9290   17.5282 N   0  0  0  0  0  0  0  0  0  0  0  0
    9.4126   -5.9853   18.4899 C   0  0  0  0  0  0  0  0  0  0  0  0
    4.2064  -10.3242   18.3302 C   0  0  0  0  0  0  0  0  0  0  0  0
    9.6599   -4.1551   16.4796 N   0  0  0  0  0  0  0  0  0  0  0  0
    7.0644   -6.4612   15.7375 N   0  0  0  0  0  0  0  0  0  0  0  0
    5.3549   -9.6322   18.3190 C   0  0  0  0  0  0  0  0  0  0  0  0
   10.3704   -4.9638   18.6510 C   0  0  0  0  0  0  0  0  0  0  0  0
    5.5935   -8.6419   17.4234 C   0  0  0  0  0  0  0  0  0  0  0  0
   13.0726   -4.6648   23.3394 O   0  0  0  0  0  0  0  0  0  0  0  0
    8.5955   -6.0705   17.3996 C   0  0  0  0  0  0  0  0  0  0  0  0
    4.6223   -8.3832   16.5030 C   0  0  0  0  0  0  0  0  0  0  0  0
   12.4690   -5.2624   19.9024 C   0  0  0  0  0  0  0  0  0  0  0  0
    3.2548   -9.9919   17.4189 C   0  0  0  0  0  0  0  0  0  0  0  0
   12.4767   -4.7393   22.1790 C   0  0  0  0  0  0  0  0  0  0  0  0
    7.8593   -5.3772   15.3569 N   0  0  0  0  0  0  0  0  0  0  0  0
    7.4412   -6.9038   16.9283 C   0  0  0  0  0  0  0  0  0  0  0  0
  1 21  4  0
  1 23  4  0
  2  5  1  0
  2 13  4  0
  2 16  4  0
  3  6  4  0
  3  7  4  0
  4 13  4  0
  4 19  4  0
  4 24  4  0
  6 23  4  0
  7 16  1  0
  7 21  4  0
  8 18  1  0
  9 20  4  0
  9 22  4  0
 10 17  1  0
 10 25  1  0
 11 16  4  0
 11 19  4  0
 12 15  4  0
 12 22  4  0
 14 24  4  0
 14 25  4  0
 15 17  4  0
 17 20  4  0
 18 23  1  0
 19 25  4  0
M  END
$$$$

 Created by Python create_sdf_string function

 25 28  0  0  0  0  0  0  0  0999 V2000
   13.1533   -5.2399   21.0682 C   0  0  0  0  0  0  0  0  0  0  0  0
   10.4729   -4.0295   17.6135 C   0  0  0  0  0  0  0  0  0  0  0  0
   10.4789   -4.3641   20.9564 C   0  0  0  0  0  0  0  0  0  0  0  0
    8.7421   -5.1412   16.3650 C   0  0  0  0  0  0  0  0  0  0  0  0
   11.4353   -2.9204   17.8044 C   0  0  0  0  0  0  0  0  0  0  0  0
   11.1529   -4.3028   22.1277 C   0  0  0  0  0  0  0  0  0  0  0  0
   11.1290   -4.8502   19.8052 C   0  0  0  0  0  0  0  0  0  0  0  0
   12.4329   -4.2159   24.4224 C   0  0  0  0  0  0  0  0  0  0  0  0
    3.4740   -9.0387   16.5022 C   0  0  0  0  0  0  0  0  0  0  0  0
    6.8384   -7.9290   17.5282 N   0  0  0  0  0  0  0  0  0  0  0  0
    9.4126   -5.9853   18.4899 C   0  0  0  0  0  0  0  0  0  0  0  0
    4.2064  -10.3242   18.3302 C   0  0  0  0  0  0  0  0  0  0  0  0
    9.6599   -4.1551   16.4796 N   0  0  0  0  0  0  0  0  0  0  0  0
    7.0644   -6.4612   15.7375 N   0  0  0  0  0  0  0  0  0  0  0  0
    5.3549   -9.6322   18.3190 C   0  0  0  0  0  0  0  0  0  0  0  0
   10.3704   -4.9638   18.6510 C   0  0  0  0  0  0  0  0  0  0  0  0
    5.5935   -8.6419   17.4234 C   0  0  0  0  0  0  0  0  0  0  0  0
   13.0726   -4.6648   23.3394 O   0  0  0  0  0  0  0  0  0  0  0  0
    8.5955   -6.0705   17.3996 C   0  0  0  0  0  0  0  0  0  0  0  0
    4.6223   -8.3832   16.5030 C   0  0  0  0  0  0  0  0  0  0  0  0
   12.4690   -5.2624   19.9024 C   0  0  0  0  0  0  0  0  0  0  0  0
    3.2548   -9.9919   17.4189 C   0  0  0  0  0  0  0  0  0  0  0  0
   12.4767   -4.7393   22.1790 C   0  0  0  0  0  0  0  0  0  0  0  0
    7.8593   -5.3772   15.3569 N   0  0  0  0  0  0  0  0  0  0  0  0
    7.4412   -6.9038   16.9283 C   0  0  0  0  0  0  0  0  0  0  0  0
  1 21  4  0
  1 23  4  0
  2  5  1  0
  2 13  4  0
  2 16  4  0
  3  6  4  0
  3  7  4  0
  4 13  4  0
  4 19  4  0
  4 24  4  0
  6 23  4  0
  7 16  1  0
  7 21  4  0
  8 18  1  0
  9 20  4  0
  9 22  4  0
 10 17  1  0
 10 25  1  0
 11 16  4  0
 11 19  4  0
 12 15  4  0
 12 22  4  0
 14 24  4  0
 14 25  4  0
 15 17  4  0
 17 20  4  0
 18 23  1  0
 19 25  4  0
M  END
$$$$

 Created by Python create_sdf_string function

 25 28  0  0  0  0  0  0  0  0999 V2000
   13.1533   -5.2399   21.0682 C   0  0  0  0  0  0  0  0  0  0  0  0
   10.4729   -4.0295   17.6135 C   0  0  0  0  0  0  0  0  0  0  0  0
   10.4789   -4.3641   20.9564 C   0  0  0  0  0  0  0  0  0  0  0  0
    8.7421   -5.1412   16.3650 C   0  0  0  0  0  0  0  0  0  0  0  0
   11.4353   -2.9204   17.8044 C   0  0  0  0  0  0  0  0  0  0  0  0
   11.1529   -4.3028   22.1277 C   0  0  0  0  0  0  0  0  0  0  0  0
   11.1290   -4.8502   19.8052 C   0  0  0  0  0  0  0  0  0  0  0  0
   12.4329   -4.2159   24.4224 C   0  0  0  0  0  0  0  0  0  0  0  0
    3.4740   -9.0387   16.5022 C   0  0  0  0  0  0  0  0  0  0  0  0
    6.8384   -7.9290   17.5282 N   0  0  0  0  0  0  0  0  0  0  0  0
    9.4126   -5.9853   18.4899 C   0  0  0  0  0  0  0  0  0  0  0  0
    4.2064  -10.3242   18.3302 C   0  0  0  0  0  0  0  0  0  0  0  0
    9.6599   -4.1551   16.4796 N   0  0  0  0  0  0  0  0  0  0  0  0
    7.0644   -6.4612   15.7375 N   0  0  0  0  0  0  0  0  0  0  0  0
    5.3549   -9.6322   18.3190 C   0  0  0  0  0  0  0  0  0  0  0  0
   10.3704   -4.9638   18.6510 C   0  0  0  0  0  0  0  0  0  0  0  0
    5.5935   -8.6419   17.4234 C   0  0  0  0  0  0  0  0  0  0  0  0
   13.0726   -4.6648   23.3394 O   0  0  0  0  0  0  0  0  0  0  0  0
    8.5955   -6.0705   17.3996 C   0  0  0  0  0  0  0  0  0  0  0  0
    4.6223   -8.3832   16.5030 C   0  0  0  0  0  0  0  0  0  0  0  0
   12.4690   -5.2624   19.9024 C   0  0  0  0  0  0  0  0  0  0  0  0
    3.2548   -9.9919   17.4189 C   0  0  0  0  0  0  0  0  0  0  0  0
   12.4767   -4.7393   22.1790 C   0  0  0  0  0  0  0  0  0  0  0  0
    7.8593   -5.3772   15.3569 N   0  0  0  0  0  0  0  0  0  0  0  0
    7.4412   -6.9038   16.9283 C   0  0  0  0  0  0  0  0  0  0  0  0
  1 21  4  0
  1 23  4  0
  2  5  1  0
  2 13  4  0
  2 16  4  0
  3  6  4  0
  3  7  4  0
  4 13  4  0
  4 19  4  0
  4 24  4  0
  6 23  4  0
  7 16  1  0
  7 21  4  0
  8 18  1  0
  9 20  4  0
  9 22  4  0
 10 17  1  0
 10 25  1  0
 11 16  4  0
 11 19  4  0
 12 15  4  0
 12 22  4  0
 14 24  4  0
 14 25  4  0
 15 17  4  0
 17 20  4  0
 18 23  1  0
 19 25  4  0
M  END
$$$$

 Created by Python create_sdf_string function

 25 28  0  0  0  0  0  0  0  0999 V2000
   13.1533   -5.2399   21.0682 C   0  0  0  0  0  0  0  0  0  0  0  0
   10.4729   -4.0295   17.6135 C   0  0  0  0  0  0  0  0  0  0  0  0
   10.4789   -4.3641   20.9564 C   0  0  0  0  0  0  0  0  0  0  0  0
    8.7421   -5.1412   16.3650 C   0  0  0  0  0  0  0  0  0  0  0  0
   11.4353   -2.9204   17.8044 C   0  0  0  0  0  0  0  0  0  0  0  0
   11.1529   -4.3028   22.1277 C   0  0  0  0  0  0  0  0  0  0  0  0
   11.1290   -4.8502   19.8052 C   0  0  0  0  0  0  0  0  0  0  0  0
   12.4329   -4.2159   24.4224 C   0  0  0  0  0  0  0  0  0  0  0  0
    3.4740   -9.0387   16.5022 C   0  0  0  0  0  0  0  0  0  0  0  0
    6.8384   -7.9290   17.5282 N   0  0  0  0  0  0  0  0  0  0  0  0
    9.4126   -5.9853   18.4899 C   0  0  0  0  0  0  0  0  0  0  0  0
    4.2064  -10.3242   18.3302 C   0  0  0  0  0  0  0  0  0  0  0  0
    9.6599   -4.1551   16.4796 N   0  0  0  0  0  0  0  0  0  0  0  0
    7.0644   -6.4612   15.7375 N   0  0  0  0  0  0  0  0  0  0  0  0
    5.3549   -9.6322   18.3190 C   0  0  0  0  0  0  0  0  0  0  0  0
   10.3704   -4.9638   18.6510 C   0  0  0  0  0  0  0  0  0  0  0  0
    5.5935   -8.6419   17.4234 C   0  0  0  0  0  0  0  0  0  0  0  0
   13.0726   -4.6648   23.3394 O   0  0  0  0  0  0  0  0  0  0  0  0
    8.5955   -6.0705   17.3996 C   0  0  0  0  0  0  0  0  0  0  0  0
    4.6223   -8.3832   16.5030 C   0  0  0  0  0  0  0  0  0  0  0  0
   12.4690   -5.2624   19.9024 C   0  0  0  0  0  0  0  0  0  0  0  0
    3.2548   -9.9919   17.4189 C   0  0  0  0  0  0  0  0  0  0  0  0
   12.4767   -4.7393   22.1790 C   0  0  0  0  0  0  0  0  0  0  0  0
    7.8593   -5.3772   15.3569 N   0  0  0  0  0  0  0  0  0  0  0  0
    7.4412   -6.9038   16.9283 C   0  0  0  0  0  0  0  0  0  0  0  0
  1 21  4  0
  1 23  4  0
  2  5  1  0
  2 13  4  0
  2 16  4  0
  3  6  4  0
  3  7  4  0
  4 13  4  0
  4 19  4  0
  4 24  4  0
  6 23  4  0
  7 16  1  0
  7 21  4  0
  8 18  1  0
  9 20  4  0
  9 22  4  0
 10 17  1  0
 10 25  1  0
 11 16  4  0
 11 19  4  0
 12 15  4  0
 12 22  4  0
 14 24  4  0
 14 25  4  0
 15 17  4  0
 17 20  4  0
 18 23  1  0
 19 25  4  0
M  END
$$$$

 Created by Python create_sdf_string function

 25 28  0  0  0  0  0  0  0  0999 V2000
   13.1533   -5.2399   21.0682 C   0  0  0  0  0  0  0  0  0  0  0  0
   10.4729   -4.0295   17.6135 C   0  0  0  0  0  0  0  0  0  0  0  0
   10.4789   -4.3641   20.9564 C   0  0  0  0  0  0  0  0  0  0  0  0
    8.7421   -5.1412   16.3650 C   0  0  0  0  0  0  0  0  0  0  0  0
   11.4353   -2.9204   17.8044 C   0  0  0  0  0  0  0  0  0  0  0  0
   11.1529   -4.3028   22.1277 C   0  0  0  0  0  0  0  0  0  0  0  0
   11.1290   -4.8502   19.8052 C   0  0  0  0  0  0  0  0  0  0  0  0
   12.4329   -4.2159   24.4224 C   0  0  0  0  0  0  0  0  0  0  0  0
    3.4740   -9.0387   16.5022 C   0  0  0  0  0  0  0  0  0  0  0  0
    6.8384   -7.9290   17.5282 N   0  0  0  0  0  0  0  0  0  0  0  0
    9.4126   -5.9853   18.4899 C   0  0  0  0  0  0  0  0  0  0  0  0
    4.2064  -10.3242   18.3302 C   0  0  0  0  0  0  0  0  0  0  0  0
    9.6599   -4.1551   16.4796 N   0  0  0  0  0  0  0  0  0  0  0  0
    7.0644   -6.4612   15.7375 N   0  0  0  0  0  0  0  0  0  0  0  0
    5.3549   -9.6322   18.3190 C   0  0  0  0  0  0  0  0  0  0  0  0
   10.3704   -4.9638   18.6510 C   0  0  0  0  0  0  0  0  0  0  0  0
    5.5935   -8.6419   17.4234 C   0  0  0  0  0  0  0  0  0  0  0  0
   13.0726   -4.6648   23.3394 O   0  0  0  0  0  0  0  0  0  0  0  0
    8.5955   -6.0705   17.3996 C   0  0  0  0  0  0  0  0  0  0  0  0
    4.6223   -8.3832   16.5030 C   0  0  0  0  0  0  0  0  0  0  0  0
   12.4690   -5.2624   19.9024 C   0  0  0  0  0  0  0  0  0  0  0  0
    3.2548   -9.9919   17.4189 C   0  0  0  0  0  0  0  0  0  0  0  0
   12.4767   -4.7393   22.1790 C   0  0  0  0  0  0  0  0  0  0  0  0
    7.8593   -5.3772   15.3569 N   0  0  0  0  0  0  0  0  0  0  0  0
    7.4412   -6.9038   16.9283 C   0  0  0  0  0  0  0  0  0  0  0  0
  1 21  4  0
  1 23  4  0
  2  5  1  0
  2 13  4  0
  2 16  4  0
  3  6  4  0
  3  7  4  0
  4 13  4  0
  4 19  4  0
  4 24  4  0
  6 23  4  0
  7 16  1  0
  7 21  4  0
  8 18  1  0
  9 20  4  0
  9 22  4  0
 10 17  1  0
 10 25  1  0
 11 16  4  0
 11 19  4  0
 12 15  4  0
 12 22  4  0
 14 24  4  0
 14 25  4  0
 15 17  4  0
 17 20  4  0
 18 23  1  0
 19 25  4  0
M  END
$$$$

 Created by Python create_sdf_string function

 25 28  0  0  0  0  0  0  0  0999 V2000
   13.1533   -5.2399   21.0682 C   0  0  0  0  0  0  0  0  0  0  0  0
   10.4729   -4.0295   17.6135 C   0  0  0  0  0  0  0  0  0  0  0  0
   10.4789   -4.3641   20.9564 C   0  0  0  0  0  0  0  0  0  0  0  0
    8.7421   -5.1412   16.3650 C   0  0  0  0  0  0  0  0  0  0  0  0
   11.4353   -2.9204   17.8044 C   0  0  0  0  0  0  0  0  0  0  0  0
   11.1529   -4.3028   22.1277 C   0  0  0  0  0  0  0  0  0  0  0  0
   11.1290   -4.8502   19.8052 C   0  0  0  0  0  0  0  0  0  0  0  0
   12.4329   -4.2159   24.4224 C   0  0  0  0  0  0  0  0  0  0  0  0
    3.4740   -9.0387   16.5022 C   0  0  0  0  0  0  0  0  0  0  0  0
    6.8384   -7.9290   17.5282 N   0  0  0  0  0  0  0  0  0  0  0  0
    9.4126   -5.9853   18.4899 C   0  0  0  0  0  0  0  0  0  0  0  0
    4.2064  -10.3242   18.3302 C   0  0  0  0  0  0  0  0  0  0  0  0
    9.6599   -4.1551   16.4796 N   0  0  0  0  0  0  0  0  0  0  0  0
    7.0644   -6.4612   15.7375 N   0  0  0  0  0  0  0  0  0  0  0  0
    5.3549   -9.6322   18.3190 C   0  0  0  0  0  0  0  0  0  0  0  0
   10.3704   -4.9638   18.6510 C   0  0  0  0  0  0  0  0  0  0  0  0
    5.5935   -8.6419   17.4234 C   0  0  0  0  0  0  0  0  0  0  0  0
   13.0726   -4.6648   23.3394 O   0  0  0  0  0  0  0  0  0  0  0  0
    8.5955   -6.0705   17.3996 C   0  0  0  0  0  0  0  0  0  0  0  0
    4.6223   -8.3832   16.5030 C   0  0  0  0  0  0  0  0  0  0  0  0
   12.4690   -5.2624   19.9024 C   0  0  0  0  0  0  0  0  0  0  0  0
    3.2548   -9.9919   17.4189 C   0  0  0  0  0  0  0  0  0  0  0  0
   12.4767   -4.7393   22.1790 C   0  0  0  0  0  0  0  0  0  0  0  0
    7.8593   -5.3772   15.3569 N   0  0  0  0  0  0  0  0  0  0  0  0
    7.4412   -6.9038   16.9283 C   0  0  0  0  0  0  0  0  0  0  0  0
  1 21  4  0
  1 23  4  0
  2  5  1  0
  2 13  4  0
  2 16  4  0
  3  6  4  0
  3  7  4  0
  4 13  4  0
  4 19  4  0
  4 24  4  0
  6 23  4  0
  7 16  1  0
  7 21  4  0
  8 18  1  0
  9 20  4  0
  9 22  4  0
 10 17  1  0
 10 25  1  0
 11 16  4  0
 11 19  4  0
 12 15  4  0
 12 22  4  0
 14 24  4  0
 14 25  4  0
 15 17  4  0
 17 20  4  0
 18 23  1  0
 19 25  4  0
M  END
$$$$

 Created by Python create_sdf_string function

 25 28  0  0  0  0  0  0  0  0999 V2000
   13.1533   -5.2399   21.0682 C   0  0  0  0  0  0  0  0  0  0  0  0
   10.4729   -4.0295   17.6135 C   0  0  0  0  0  0  0  0  0  0  0  0
   10.4789   -4.3641   20.9564 C   0  0  0  0  0  0  0  0  0  0  0  0
    8.7421   -5.1412   16.3650 C   0  0  0  0  0  0  0  0  0  0  0  0
   11.4353   -2.9204   17.8044 C   0  0  0  0  0  0  0  0  0  0  0  0
   11.1529   -4.3028   22.1277 C   0  0  0  0  0  0  0  0  0  0  0  0
   11.1290   -4.8502   19.8052 C   0  0  0  0  0  0  0  0  0  0  0  0
   12.4329   -4.2159   24.4224 C   0  0  0  0  0  0  0  0  0  0  0  0
    3.4740   -9.0387   16.5022 C   0  0  0  0  0  0  0  0  0  0  0  0
    6.8384   -7.9290   17.5282 N   0  0  0  0  0  0  0  0  0  0  0  0
    9.4126   -5.9853   18.4899 C   0  0  0  0  0  0  0  0  0  0  0  0
    4.2064  -10.3242   18.3302 C   0  0  0  0  0  0  0  0  0  0  0  0
    9.6599   -4.1551   16.4796 N   0  0  0  0  0  0  0  0  0  0  0  0
    7.0644   -6.4612   15.7375 N   0  0  0  0  0  0  0  0  0  0  0  0
    5.3549   -9.6322   18.3190 C   0  0  0  0  0  0  0  0  0  0  0  0
   10.3704   -4.9638   18.6510 C   0  0  0  0  0  0  0  0  0  0  0  0
    5.5935   -8.6419   17.4234 C   0  0  0  0  0  0  0  0  0  0  0  0
   13.0726   -4.6648   23.3394 O   0  0  0  0  0  0  0  0  0  0  0  0
    8.5955   -6.0705   17.3996 C   0  0  0  0  0  0  0  0  0  0  0  0
    4.6223   -8.3832   16.5030 C   0  0  0  0  0  0  0  0  0  0  0  0
   12.4690   -5.2624   19.9024 C   0  0  0  0  0  0  0  0  0  0  0  0
    3.2548   -9.9919   17.4189 C   0  0  0  0  0  0  0  0  0  0  0  0
   12.4767   -4.7393   22.1790 C   0  0  0  0  0  0  0  0  0  0  0  0
    7.8593   -5.3772   15.3569 N   0  0  0  0  0  0  0  0  0  0  0  0
    7.4412   -6.9038   16.9283 C   0  0  0  0  0  0  0  0  0  0  0  0
  1 21  4  0
  1 23  4  0
  2  5  1  0
  2 13  4  0
  2 16  4  0
  3  6  4  0
  3  7  4  0
  4 13  4  0
  4 19  4  0
  4 24  4  0
  6 23  4  0
  7 16  1  0
  7 21  4  0
  8 18  1  0
  9 20  4  0
  9 22  4  0
 10 17  1  0
 10 25  1  0
 11 16  4  0
 11 19  4  0
 12 15  4  0
 12 22  4  0
 14 24  4  0
 14 25  4  0
 15 17  4  0
 17 20  4  0
 18 23  1  0
 19 25  4  0
M  END
$$$$

 Created by Python create_sdf_string function

 25 28  0  0  0  0  0  0  0  0999 V2000
   13.1533   -5.2399   21.0682 C   0  0  0  0  0  0  0  0  0  0  0  0
   10.4729   -4.0295   17.6135 C   0  0  0  0  0  0  0  0  0  0  0  0
   10.4789   -4.3641   20.9564 C   0  0  0  0  0  0  0  0  0  0  0  0
    8.7421   -5.1412   16.3650 C   0  0  0  0  0  0  0  0  0  0  0  0
   11.4353   -2.9204   17.8044 C   0  0  0  0  0  0  0  0  0  0  0  0
   11.1529   -4.3028   22.1277 C   0  0  0  0  0  0  0  0  0  0  0  0
   11.1290   -4.8502   19.8052 C   0  0  0  0  0  0  0  0  0  0  0  0
   12.4329   -4.2159   24.4224 C   0  0  0  0  0  0  0  0  0  0  0  0
    3.4740   -9.0387   16.5022 C   0  0  0  0  0  0  0  0  0  0  0  0
    6.8384   -7.9290   17.5282 N   0  0  0  0  0  0  0  0  0  0  0  0
    9.4126   -5.9853   18.4899 C   0  0  0  0  0  0  0  0  0  0  0  0
    4.2064  -10.3242   18.3302 C   0  0  0  0  0  0  0  0  0  0  0  0
    9.6599   -4.1551   16.4796 N   0  0  0  0  0  0  0  0  0  0  0  0
    7.0644   -6.4612   15.7375 N   0  0  0  0  0  0  0  0  0  0  0  0
    5.3549   -9.6322   18.3190 C   0  0  0  0  0  0  0  0  0  0  0  0
   10.3704   -4.9638   18.6510 C   0  0  0  0  0  0  0  0  0  0  0  0
    5.5935   -8.6419   17.4234 C   0  0  0  0  0  0  0  0  0  0  0  0
   13.0726   -4.6648   23.3394 O   0  0  0  0  0  0  0  0  0  0  0  0
    8.5955   -6.0705   17.3996 C   0  0  0  0  0  0  0  0  0  0  0  0
    4.6223   -8.3832   16.5030 C   0  0  0  0  0  0  0  0  0  0  0  0
   12.4690   -5.2624   19.9024 C   0  0  0  0  0  0  0  0  0  0  0  0
    3.2548   -9.9919   17.4189 C   0  0  0  0  0  0  0  0  0  0  0  0
   12.4767   -4.7393   22.1790 C   0  0  0  0  0  0  0  0  0  0  0  0
    7.8593   -5.3772   15.3569 N   0  0  0  0  0  0  0  0  0  0  0  0
    7.4412   -6.9038   16.9283 C   0  0  0  0  0  0  0  0  0  0  0  0
  1 21  4  0
  1 23  4  0
  2  5  1  0
  2 13  4  0
  2 16  4  0
  3  6  4  0
  3  7  4  0
  4 13  4  0
  4 19  4  0
  4 24  4  0
  6 23  4  0
  7 16  1  0
  7 21  4  0
  8 18  1  0
  9 20  4  0
  9 22  4  0
 10 17  1  0
 10 25  1  0
 11 16  4  0
 11 19  4  0
 12 15  4  0
 12 22  4  0
 14 24  4  0
 14 25  4  0
 15 17  4  0
 17 20  4  0
 18 23  1  0
 19 25  4  0
M  END
$$$$

 Created by Python create_sdf_string function

 25 28  0  0  0  0  0  0  0  0999 V2000
   13.1533   -5.2399   21.0682 C   0  0  0  0  0  0  0  0  0  0  0  0
   10.4729   -4.0295   17.6135 C   0  0  0  0  0  0  0  0  0  0  0  0
   10.4789   -4.3641   20.9564 C   0  0  0  0  0  0  0  0  0  0  0  0
    8.7421   -5.1412   16.3650 C   0  0  0  0  0  0  0  0  0  0  0  0
   11.4353   -2.9204   17.8044 C   0  0  0  0  0  0  0  0  0  0  0  0
   11.1529   -4.3028   22.1277 C   0  0  0  0  0  0  0  0  0  0  0  0
   11.1290   -4.8502   19.8052 C   0  0  0  0  0  0  0  0  0  0  0  0
   12.4329   -4.2159   24.4224 C   0  0  0  0  0  0  0  0  0  0  0  0
    3.4740   -9.0387   16.5022 C   0  0  0  0  0  0  0  0  0  0  0  0
    6.8384   -7.9290   17.5282 N   0  0  0  0  0  0  0  0  0  0  0  0
    9.4126   -5.9853   18.4899 C   0  0  0  0  0  0  0  0  0  0  0  0
    4.2064  -10.3242   18.3302 C   0  0  0  0  0  0  0  0  0  0  0  0
    9.6599   -4.1551   16.4796 N   0  0  0  0  0  0  0  0  0  0  0  0
    7.0644   -6.4612   15.7375 N   0  0  0  0  0  0  0  0  0  0  0  0
    5.3549   -9.6322   18.3190 C   0  0  0  0  0  0  0  0  0  0  0  0
   10.3704   -4.9638   18.6510 C   0  0  0  0  0  0  0  0  0  0  0  0
    5.5935   -8.6419   17.4234 C   0  0  0  0  0  0  0  0  0  0  0  0
   13.0726   -4.6648   23.3394 O   0  0  0  0  0  0  0  0  0  0  0  0
    8.5955   -6.0705   17.3996 C   0  0  0  0  0  0  0  0  0  0  0  0
    4.6223   -8.3832   16.5030 C   0  0  0  0  0  0  0  0  0  0  0  0
   12.4690   -5.2624   19.9024 C   0  0  0  0  0  0  0  0  0  0  0  0
    3.2548   -9.9919   17.4189 C   0  0  0  0  0  0  0  0  0  0  0  0
   12.4767   -4.7393   22.1790 C   0  0  0  0  0  0  0  0  0  0  0  0
    7.8593   -5.3772   15.3569 N   0  0  0  0  0  0  0  0  0  0  0  0
    7.4412   -6.9038   16.9283 C   0  0  0  0  0  0  0  0  0  0  0  0
  1 21  4  0
  1 23  4  0
  2  5  1  0
  2 13  4  0
  2 16  4  0
  3  6  4  0
  3  7  4  0
  4 13  4  0
  4 19  4  0
  4 24  4  0
  6 23  4  0
  7 16  1  0
  7 21  4  0
  8 18  1  0
  9 20  4  0
  9 22  4  0
 10 17  1  0
 10 25  1  0
 11 16  4  0
 11 19  4  0
 12 15  4  0
 12 22  4  0
 14 24  4  0
 14 25  4  0
 15 17  4  0
 17 20  4  0
 18 23  1  0
 19 25  4  0
M  END
$$$$

 Created by Python create_sdf_string function

 25 28  0  0  0  0  0  0  0  0999 V2000
   13.1533   -5.2399   21.0682 C   0  0  0  0  0  0  0  0  0  0  0  0
   10.4729   -4.0295   17.6135 C   0  0  0  0  0  0  0  0  0  0  0  0
   10.4789   -4.3641   20.9564 C   0  0  0  0  0  0  0  0  0  0  0  0
    8.7421   -5.1412   16.3650 C   0  0  0  0  0  0  0  0  0  0  0  0
   11.4353   -2.9204   17.8044 C   0  0  0  0  0  0  0  0  0  0  0  0
   11.1529   -4.3028   22.1277 C   0  0  0  0  0  0  0  0  0  0  0  0
   11.1290   -4.8502   19.8052 C   0  0  0  0  0  0  0  0  0  0  0  0
   12.4329   -4.2159   24.4224 C   0  0  0  0  0  0  0  0  0  0  0  0
    3.4740   -9.0387   16.5022 C   0  0  0  0  0  0  0  0  0  0  0  0
    6.8384   -7.9290   17.5282 N   0  0  0  0  0  0  0  0  0  0  0  0
    9.4126   -5.9853   18.4899 C   0  0  0  0  0  0  0  0  0  0  0  0
    4.2064  -10.3242   18.3302 C   0  0  0  0  0  0  0  0  0  0  0  0
    9.6599   -4.1551   16.4796 N   0  0  0  0  0  0  0  0  0  0  0  0
    7.0644   -6.4612   15.7375 N   0  0  0  0  0  0  0  0  0  0  0  0
    5.3549   -9.6322   18.3190 C   0  0  0  0  0  0  0  0  0  0  0  0
   10.3704   -4.9638   18.6510 C   0  0  0  0  0  0  0  0  0  0  0  0
    5.5935   -8.6419   17.4234 C   0  0  0  0  0  0  0  0  0  0  0  0
   13.0726   -4.6648   23.3394 O   0  0  0  0  0  0  0  0  0  0  0  0
    8.5955   -6.0705   17.3996 C   0  0  0  0  0  0  0  0  0  0  0  0
    4.6223   -8.3832   16.5030 C   0  0  0  0  0  0  0  0  0  0  0  0
   12.4690   -5.2624   19.9024 C   0  0  0  0  0  0  0  0  0  0  0  0
    3.2548   -9.9919   17.4189 C   0  0  0  0  0  0  0  0  0  0  0  0
   12.4767   -4.7393   22.1790 C   0  0  0  0  0  0  0  0  0  0  0  0
    7.8593   -5.3772   15.3569 N   0  0  0  0  0  0  0  0  0  0  0  0
    7.4412   -6.9038   16.9283 C   0  0  0  0  0  0  0  0  0  0  0  0
  1 21  4  0
  1 23  4  0
  2  5  1  0
  2 13  4  0
  2 16  4  0
  3  6  4  0
  3  7  4  0
  4 13  4  0
  4 19  4  0
  4 24  4  0
  6 23  4  0
  7 16  1  0
  7 21  4  0
  8 18  1  0
  9 20  4  0
  9 22  4  0
 10 17  1  0
 10 25  1  0
 11 16  4  0
 11 19  4  0
 12 15  4  0
 12 22  4  0
 14 24  4  0
 14 25  4  0
 15 17  4  0
 17 20  4  0
 18 23  1  0
 19 25  4  0
M  END
$$$$

 Created by Python create_sdf_string function

 25 28  0  0  0  0  0  0  0  0999 V2000
   13.1533   -5.2399   21.0682 C   0  0  0  0  0  0  0  0  0  0  0  0
   10.4729   -4.0295   17.6135 C   0  0  0  0  0  0  0  0  0  0  0  0
   10.4789   -4.3641   20.9564 C   0  0  0  0  0  0  0  0  0  0  0  0
    8.7421   -5.1412   16.3650 C   0  0  0  0  0  0  0  0  0  0  0  0
   11.4353   -2.9204   17.8044 C   0  0  0  0  0  0  0  0  0  0  0  0
   11.1529   -4.3028   22.1277 C   0  0  0  0  0  0  0  0  0  0  0  0
   11.1290   -4.8502   19.8052 C   0  0  0  0  0  0  0  0  0  0  0  0
   12.4329   -4.2159   24.4224 C   0  0  0  0  0  0  0  0  0  0  0  0
    3.4740   -9.0387   16.5022 C   0  0  0  0  0  0  0  0  0  0  0  0
    6.8384   -7.9290   17.5282 N   0  0  0  0  0  0  0  0  0  0  0  0
    9.4126   -5.9853   18.4899 C   0  0  0  0  0  0  0  0  0  0  0  0
    4.2064  -10.3242   18.3302 C   0  0  0  0  0  0  0  0  0  0  0  0
    9.6599   -4.1551   16.4796 N   0  0  0  0  0  0  0  0  0  0  0  0
    7.0644   -6.4612   15.7375 N   0  0  0  0  0  0  0  0  0  0  0  0
    5.3549   -9.6322   18.3190 C   0  0  0  0  0  0  0  0  0  0  0  0
   10.3704   -4.9638   18.6510 C   0  0  0  0  0  0  0  0  0  0  0  0
    5.5935   -8.6419   17.4234 C   0  0  0  0  0  0  0  0  0  0  0  0
   13.0726   -4.6648   23.3394 O   0  0  0  0  0  0  0  0  0  0  0  0
    8.5955   -6.0705   17.3996 C   0  0  0  0  0  0  0  0  0  0  0  0
    4.6223   -8.3832   16.5030 C   0  0  0  0  0  0  0  0  0  0  0  0
   12.4690   -5.2624   19.9024 C   0  0  0  0  0  0  0  0  0  0  0  0
    3.2548   -9.9919   17.4189 C   0  0  0  0  0  0  0  0  0  0  0  0
   12.4767   -4.7393   22.1790 C   0  0  0  0  0  0  0  0  0  0  0  0
    7.8593   -5.3772   15.3569 N   0  0  0  0  0  0  0  0  0  0  0  0
    7.4412   -6.9038   16.9283 C   0  0  0  0  0  0  0  0  0  0  0  0
  1 21  4  0
  1 23  4  0
  2  5  1  0
  2 13  4  0
  2 16  4  0
  3  6  4  0
  3  7  4  0
  4 13  4  0
  4 19  4  0
  4 24  4  0
  6 23  4  0
  7 16  1  0
  7 21  4  0
  8 18  1  0
  9 20  4  0
  9 22  4  0
 10 17  1  0
 10 25  1  0
 11 16  4  0
 11 19  4  0
 12 15  4  0
 12 22  4  0
 14 24  4  0
 14 25  4  0
 15 17  4  0
 17 20  4  0
 18 23  1  0
 19 25  4  0
M  END
$$$$

 Created by Python create_sdf_string function

 25 28  0  0  0  0  0  0  0  0999 V2000
   13.1533   -5.2399   21.0682 C   0  0  0  0  0  0  0  0  0  0  0  0
   10.4729   -4.0295   17.6135 C   0  0  0  0  0  0  0  0  0  0  0  0
   10.4789   -4.3641   20.9564 C   0  0  0  0  0  0  0  0  0  0  0  0
    8.7421   -5.1412   16.3650 C   0  0  0  0  0  0  0  0  0  0  0  0
   11.4353   -2.9204   17.8044 C   0  0  0  0  0  0  0  0  0  0  0  0
   11.1529   -4.3028   22.1277 C   0  0  0  0  0  0  0  0  0  0  0  0
   11.1290   -4.8502   19.8052 C   0  0  0  0  0  0  0  0  0  0  0  0
   12.4329   -4.2159   24.4224 C   0  0  0  0  0  0  0  0  0  0  0  0
    3.4740   -9.0387   16.5022 C   0  0  0  0  0  0  0  0  0  0  0  0
    6.8384   -7.9290   17.5282 N   0  0  0  0  0  0  0  0  0  0  0  0
    9.4126   -5.9853   18.4899 C   0  0  0  0  0  0  0  0  0  0  0  0
    4.2064  -10.3242   18.3302 C   0  0  0  0  0  0  0  0  0  0  0  0
    9.6599   -4.1551   16.4796 N   0  0  0  0  0  0  0  0  0  0  0  0
    7.0644   -6.4612   15.7375 N   0  0  0  0  0  0  0  0  0  0  0  0
    5.3549   -9.6322   18.3190 C   0  0  0  0  0  0  0  0  0  0  0  0
   10.3704   -4.9638   18.6510 C   0  0  0  0  0  0  0  0  0  0  0  0
    5.5935   -8.6419   17.4234 C   0  0  0  0  0  0  0  0  0  0  0  0
   13.0726   -4.6648   23.3394 O   0  0  0  0  0  0  0  0  0  0  0  0
    8.5955   -6.0705   17.3996 C   0  0  0  0  0  0  0  0  0  0  0  0
    4.6223   -8.3832   16.5030 C   0  0  0  0  0  0  0  0  0  0  0  0
   12.4690   -5.2624   19.9024 C   0  0  0  0  0  0  0  0  0  0  0  0
    3.2548   -9.9919   17.4189 C   0  0  0  0  0  0  0  0  0  0  0  0
   12.4767   -4.7393   22.1790 C   0  0  0  0  0  0  0  0  0  0  0  0
    7.8593   -5.3772   15.3569 N   0  0  0  0  0  0  0  0  0  0  0  0
    7.4412   -6.9038   16.9283 C   0  0  0  0  0  0  0  0  0  0  0  0
  1 21  4  0
  1 23  4  0
  2  5  1  0
  2 13  4  0
  2 16  4  0
  3  6  4  0
  3  7  4  0
  4 13  4  0
  4 19  4  0
  4 24  4  0
  6 23  4  0
  7 16  1  0
  7 21  4  0
  8 18  1  0
  9 20  4  0
  9 22  4  0
 10 17  1  0
 10 25  1  0
 11 16  4  0
 11 19  4  0
 12 15  4  0
 12 22  4  0
 14 24  4  0
 14 25  4  0
 15 17  4  0
 17 20  4  0
 18 23  1  0
 19 25  4  0
M  END
$$$$

 Created by Python create_sdf_string function

 25 28  0  0  0  0  0  0  0  0999 V2000
   13.1533   -5.2399   21.0682 C   0  0  0  0  0  0  0  0  0  0  0  0
   10.4729   -4.0295   17.6135 C   0  0  0  0  0  0  0  0  0  0  0  0
   10.4789   -4.3641   20.9564 C   0  0  0  0  0  0  0  0  0  0  0  0
    8.7421   -5.1412   16.3650 C   0  0  0  0  0  0  0  0  0  0  0  0
   11.4353   -2.9204   17.8044 C   0  0  0  0  0  0  0  0  0  0  0  0
   11.1529   -4.3028   22.1277 C   0  0  0  0  0  0  0  0  0  0  0  0
   11.1290   -4.8502   19.8052 C   0  0  0  0  0  0  0  0  0  0  0  0
   12.4329   -4.2159   24.4224 C   0  0  0  0  0  0  0  0  0  0  0  0
    3.4740   -9.0387   16.5022 C   0  0  0  0  0  0  0  0  0  0  0  0
    6.8384   -7.9290   17.5282 N   0  0  0  0  0  0  0  0  0  0  0  0
    9.4126   -5.9853   18.4899 C   0  0  0  0  0  0  0  0  0  0  0  0
    4.2064  -10.3242   18.3302 C   0  0  0  0  0  0  0  0  0  0  0  0
    9.6599   -4.1551   16.4796 N   0  0  0  0  0  0  0  0  0  0  0  0
    7.0644   -6.4612   15.7375 N   0  0  0  0  0  0  0  0  0  0  0  0
    5.3549   -9.6322   18.3190 C   0  0  0  0  0  0  0  0  0  0  0  0
   10.3704   -4.9638   18.6510 C   0  0  0  0  0  0  0  0  0  0  0  0
    5.5935   -8.6419   17.4234 C   0  0  0  0  0  0  0  0  0  0  0  0
   13.0726   -4.6648   23.3394 O   0  0  0  0  0  0  0  0  0  0  0  0
    8.5955   -6.0705   17.3996 C   0  0  0  0  0  0  0  0  0  0  0  0
    4.6223   -8.3832   16.5030 C   0  0  0  0  0  0  0  0  0  0  0  0
   12.4690   -5.2624   19.9024 C   0  0  0  0  0  0  0  0  0  0  0  0
    3.2548   -9.9919   17.4189 C   0  0  0  0  0  0  0  0  0  0  0  0
   12.4767   -4.7393   22.1790 C   0  0  0  0  0  0  0  0  0  0  0  0
    7.8593   -5.3772   15.3569 N   0  0  0  0  0  0  0  0  0  0  0  0
    7.4412   -6.9038   16.9283 C   0  0  0  0  0  0  0  0  0  0  0  0
  1 21  4  0
  1 23  4  0
  2  5  1  0
  2 13  4  0
  2 16  4  0
  3  6  4  0
  3  7  4  0
  4 13  4  0
  4 19  4  0
  4 24  4  0
  6 23  4  0
  7 16  1  0
  7 21  4  0
  8 18  1  0
  9 20  4  0
  9 22  4  0
 10 17  1  0
 10 25  1  0
 11 16  4  0
 11 19  4  0
 12 15  4  0
 12 22  4  0
 14 24  4  0
 14 25  4  0
 15 17  4  0
 17 20  4  0
 18 23  1  0
 19 25  4  0
M  END
$$$$

 Created by Python create_sdf_string function

 25 28  0  0  0  0  0  0  0  0999 V2000
   13.1533   -5.2399   21.0682 C   0  0  0  0  0  0  0  0  0  0  0  0
   10.4729   -4.0295   17.6135 C   0  0  0  0  0  0  0  0  0  0  0  0
   10.4789   -4.3641   20.9564 C   0  0  0  0  0  0  0  0  0  0  0  0
    8.7421   -5.1412   16.3650 C   0  0  0  0  0  0  0  0  0  0  0  0
   11.4353   -2.9204   17.8044 C   0  0  0  0  0  0  0  0  0  0  0  0
   11.1529   -4.3028   22.1277 C   0  0  0  0  0  0  0  0  0  0  0  0
   11.1290   -4.8502   19.8052 C   0  0  0  0  0  0  0  0  0  0  0  0
   12.4329   -4.2159   24.4224 C   0  0  0  0  0  0  0  0  0  0  0  0
    3.4740   -9.0387   16.5022 C   0  0  0  0  0  0  0  0  0  0  0  0
    6.8384   -7.9290   17.5282 N   0  0  0  0  0  0  0  0  0  0  0  0
    9.4126   -5.9853   18.4899 C   0  0  0  0  0  0  0  0  0  0  0  0
    4.2064  -10.3242   18.3302 C   0  0  0  0  0  0  0  0  0  0  0  0
    9.6599   -4.1551   16.4796 N   0  0  0  0  0  0  0  0  0  0  0  0
    7.0644   -6.4612   15.7375 N   0  0  0  0  0  0  0  0  0  0  0  0
    5.3549   -9.6322   18.3190 C   0  0  0  0  0  0  0  0  0  0  0  0
   10.3704   -4.9638   18.6510 C   0  0  0  0  0  0  0  0  0  0  0  0
    5.5935   -8.6419   17.4234 C   0  0  0  0  0  0  0  0  0  0  0  0
   13.0726   -4.6648   23.3394 O   0  0  0  0  0  0  0  0  0  0  0  0
    8.5955   -6.0705   17.3996 C   0  0  0  0  0  0  0  0  0  0  0  0
    4.6223   -8.3832   16.5030 C   0  0  0  0  0  0  0  0  0  0  0  0
   12.4690   -5.2624   19.9024 C   0  0  0  0  0  0  0  0  0  0  0  0
    3.2548   -9.9919   17.4189 C   0  0  0  0  0  0  0  0  0  0  0  0
   12.4767   -4.7393   22.1790 C   0  0  0  0  0  0  0  0  0  0  0  0
    7.8593   -5.3772   15.3569 N   0  0  0  0  0  0  0  0  0  0  0  0
    7.4412   -6.9038   16.9283 C   0  0  0  0  0  0  0  0  0  0  0  0
  1 21  4  0
  1 23  4  0
  2  5  1  0
  2 13  4  0
  2 16  4  0
  3  6  4  0
  3  7  4  0
  4 13  4  0
  4 19  4  0
  4 24  4  0
  6 23  4  0
  7 16  1  0
  7 21  4  0
  8 18  1  0
  9 20  4  0
  9 22  4  0
 10 17  1  0
 10 25  1  0
 11 16  4  0
 11 19  4  0
 12 15  4  0
 12 22  4  0
 14 24  4  0
 14 25  4  0
 15 17  4  0
 17 20  4  0
 18 23  1  0
 19 25  4  0
M  END
$$$$

 Created by Python create_sdf_string function

 25 28  0  0  0  0  0  0  0  0999 V2000
   13.1533   -5.2399   21.0682 C   0  0  0  0  0  0  0  0  0  0  0  0
   10.4729   -4.0295   17.6135 C   0  0  0  0  0  0  0  0  0  0  0  0
   10.4789   -4.3641   20.9564 C   0  0  0  0  0  0  0  0  0  0  0  0
    8.7421   -5.1412   16.3650 C   0  0  0  0  0  0  0  0  0  0  0  0
   11.4353   -2.9204   17.8044 C   0  0  0  0  0  0  0  0  0  0  0  0
   11.1529   -4.3028   22.1277 C   0  0  0  0  0  0  0  0  0  0  0  0
   11.1290   -4.8502   19.8052 C   0  0  0  0  0  0  0  0  0  0  0  0
   12.4329   -4.2159   24.4224 C   0  0  0  0  0  0  0  0  0  0  0  0
    3.4740   -9.0387   16.5022 C   0  0  0  0  0  0  0  0  0  0  0  0
    6.8384   -7.9290   17.5282 N   0  0  0  0  0  0  0  0  0  0  0  0
    9.4126   -5.9853   18.4899 C   0  0  0  0  0  0  0  0  0  0  0  0
    4.2064  -10.3242   18.3302 C   0  0  0  0  0  0  0  0  0  0  0  0
    9.6599   -4.1551   16.4796 N   0  0  0  0  0  0  0  0  0  0  0  0
    7.0644   -6.4612   15.7375 N   0  0  0  0  0  0  0  0  0  0  0  0
    5.3549   -9.6322   18.3190 C   0  0  0  0  0  0  0  0  0  0  0  0
   10.3704   -4.9638   18.6510 C   0  0  0  0  0  0  0  0  0  0  0  0
    5.5935   -8.6419   17.4234 C   0  0  0  0  0  0  0  0  0  0  0  0
   13.0726   -4.6648   23.3394 O   0  0  0  0  0  0  0  0  0  0  0  0
    8.5955   -6.0705   17.3996 C   0  0  0  0  0  0  0  0  0  0  0  0
    4.6223   -8.3832   16.5030 C   0  0  0  0  0  0  0  0  0  0  0  0
   12.4690   -5.2624   19.9024 C   0  0  0  0  0  0  0  0  0  0  0  0
    3.2548   -9.9919   17.4189 C   0  0  0  0  0  0  0  0  0  0  0  0
   12.4767   -4.7393   22.1790 C   0  0  0  0  0  0  0  0  0  0  0  0
    7.8593   -5.3772   15.3569 N   0  0  0  0  0  0  0  0  0  0  0  0
    7.4412   -6.9038   16.9283 C   0  0  0  0  0  0  0  0  0  0  0  0
  1 21  4  0
  1 23  4  0
  2  5  1  0
  2 13  4  0
  2 16  4  0
  3  6  4  0
  3  7  4  0
  4 13  4  0
  4 19  4  0
  4 24  4  0
  6 23  4  0
  7 16  1  0
  7 21  4  0
  8 18  1  0
  9 20  4  0
  9 22  4  0
 10 17  1  0
 10 25  1  0
 11 16  4  0
 11 19  4  0
 12 15  4  0
 12 22  4  0
 14 24  4  0
 14 25  4  0
 15 17  4  0
 17 20  4  0
 18 23  1  0
 19 25  4  0
M  END
$$$$

 Created by Python create_sdf_string function

 25 28  0  0  0  0  0  0  0  0999 V2000
   13.1533   -5.2399   21.0682 C   0  0  0  0  0  0  0  0  0  0  0  0
   10.4729   -4.0295   17.6135 C   0  0  0  0  0  0  0  0  0  0  0  0
   10.4789   -4.3641   20.9564 C   0  0  0  0  0  0  0  0  0  0  0  0
    8.7421   -5.1412   16.3650 C   0  0  0  0  0  0  0  0  0  0  0  0
   11.4353   -2.9204   17.8044 C   0  0  0  0  0  0  0  0  0  0  0  0
   11.1529   -4.3028   22.1277 C   0  0  0  0  0  0  0  0  0  0  0  0
   11.1290   -4.8502   19.8052 C   0  0  0  0  0  0  0  0  0  0  0  0
   12.4329   -4.2159   24.4224 C   0  0  0  0  0  0  0  0  0  0  0  0
    3.4740   -9.0387   16.5022 C   0  0  0  0  0  0  0  0  0  0  0  0
    6.8384   -7.9290   17.5282 N   0  0  0  0  0  0  0  0  0  0  0  0
    9.4126   -5.9853   18.4899 C   0  0  0  0  0  0  0  0  0  0  0  0
    4.2064  -10.3242   18.3302 C   0  0  0  0  0  0  0  0  0  0  0  0
    9.6599   -4.1551   16.4796 N   0  0  0  0  0  0  0  0  0  0  0  0
    7.0644   -6.4612   15.7375 N   0  0  0  0  0  0  0  0  0  0  0  0
    5.3549   -9.6322   18.3190 C   0  0  0  0  0  0  0  0  0  0  0  0
   10.3704   -4.9638   18.6510 C   0  0  0  0  0  0  0  0  0  0  0  0
    5.5935   -8.6419   17.4234 C   0  0  0  0  0  0  0  0  0  0  0  0
   13.0726   -4.6648   23.3394 O   0  0  0  0  0  0  0  0  0  0  0  0
    8.5955   -6.0705   17.3996 C   0  0  0  0  0  0  0  0  0  0  0  0
    4.6223   -8.3832   16.5030 C   0  0  0  0  0  0  0  0  0  0  0  0
   12.4690   -5.2624   19.9024 C   0  0  0  0  0  0  0  0  0  0  0  0
    3.2548   -9.9919   17.4189 C   0  0  0  0  0  0  0  0  0  0  0  0
   12.4767   -4.7393   22.1790 C   0  0  0  0  0  0  0  0  0  0  0  0
    7.8593   -5.3772   15.3569 N   0  0  0  0  0  0  0  0  0  0  0  0
    7.4412   -6.9038   16.9283 C   0  0  0  0  0  0  0  0  0  0  0  0
  1 21  4  0
  1 23  4  0
  2  5  1  0
  2 13  4  0
  2 16  4  0
  3  6  4  0
  3  7  4  0
  4 13  4  0
  4 19  4  0
  4 24  4  0
  6 23  4  0
  7 16  1  0
  7 21  4  0
  8 18  1  0
  9 20  4  0
  9 22  4  0
 10 17  1  0
 10 25  1  0
 11 16  4  0
 11 19  4  0
 12 15  4  0
 12 22  4  0
 14 24  4  0
 14 25  4  0
 15 17  4  0
 17 20  4  0
 18 23  1  0
 19 25  4  0
M  END
$$$$

 Created by Python create_sdf_string function

 25 28  0  0  0  0  0  0  0  0999 V2000
   13.1533   -5.2399   21.0682 C   0  0  0  0  0  0  0  0  0  0  0  0
   10.4729   -4.0295   17.6135 C   0  0  0  0  0  0  0  0  0  0  0  0
   10.4789   -4.3641   20.9564 C   0  0  0  0  0  0  0  0  0  0  0  0
    8.7421   -5.1412   16.3650 C   0  0  0  0  0  0  0  0  0  0  0  0
   11.4353   -2.9204   17.8044 C   0  0  0  0  0  0  0  0  0  0  0  0
   11.1529   -4.3028   22.1277 C   0  0  0  0  0  0  0  0  0  0  0  0
   11.1290   -4.8502   19.8052 C   0  0  0  0  0  0  0  0  0  0  0  0
   12.4329   -4.2159   24.4224 C   0  0  0  0  0  0  0  0  0  0  0  0
    3.4740   -9.0387   16.5022 C   0  0  0  0  0  0  0  0  0  0  0  0
    6.8384   -7.9290   17.5282 N   0  0  0  0  0  0  0  0  0  0  0  0
    9.4126   -5.9853   18.4899 C   0  0  0  0  0  0  0  0  0  0  0  0
    4.2064  -10.3242   18.3302 C   0  0  0  0  0  0  0  0  0  0  0  0
    9.6599   -4.1551   16.4796 N   0  0  0  0  0  0  0  0  0  0  0  0
    7.0644   -6.4612   15.7375 N   0  0  0  0  0  0  0  0  0  0  0  0
    5.3549   -9.6322   18.3190 C   0  0  0  0  0  0  0  0  0  0  0  0
   10.3704   -4.9638   18.6510 C   0  0  0  0  0  0  0  0  0  0  0  0
    5.5935   -8.6419   17.4234 C   0  0  0  0  0  0  0  0  0  0  0  0
   13.0726   -4.6648   23.3394 O   0  0  0  0  0  0  0  0  0  0  0  0
    8.5955   -6.0705   17.3996 C   0  0  0  0  0  0  0  0  0  0  0  0
    4.6223   -8.3832   16.5030 C   0  0  0  0  0  0  0  0  0  0  0  0
   12.4690   -5.2624   19.9024 C   0  0  0  0  0  0  0  0  0  0  0  0
    3.2548   -9.9919   17.4189 C   0  0  0  0  0  0  0  0  0  0  0  0
   12.4767   -4.7393   22.1790 C   0  0  0  0  0  0  0  0  0  0  0  0
    7.8593   -5.3772   15.3569 N   0  0  0  0  0  0  0  0  0  0  0  0
    7.4412   -6.9038   16.9283 C   0  0  0  0  0  0  0  0  0  0  0  0
  1 21  4  0
  1 23  4  0
  2  5  1  0
  2 13  4  0
  2 16  4  0
  3  6  4  0
  3  7  4  0
  4 13  4  0
  4 19  4  0
  4 24  4  0
  6 23  4  0
  7 16  1  0
  7 21  4  0
  8 18  1  0
  9 20  4  0
  9 22  4  0
 10 17  1  0
 10 25  1  0
 11 16  4  0
 11 19  4  0
 12 15  4  0
 12 22  4  0
 14 24  4  0
 14 25  4  0
 15 17  4  0
 17 20  4  0
 18 23  1  0
 19 25  4  0
M  END
$$$$

 Created by Python create_sdf_string function

 25 28  0  0  0  0  0  0  0  0999 V2000
   13.1533   -5.2399   21.0682 C   0  0  0  0  0  0  0  0  0  0  0  0
   10.4729   -4.0295   17.6135 C   0  0  0  0  0  0  0  0  0  0  0  0
   10.4789   -4.3641   20.9564 C   0  0  0  0  0  0  0  0  0  0  0  0
    8.7421   -5.1412   16.3650 C   0  0  0  0  0  0  0  0  0  0  0  0
   11.4353   -2.9204   17.8044 C   0  0  0  0  0  0  0  0  0  0  0  0
   11.1529   -4.3028   22.1277 C   0  0  0  0  0  0  0  0  0  0  0  0
   11.1290   -4.8502   19.8052 C   0  0  0  0  0  0  0  0  0  0  0  0
   12.4329   -4.2159   24.4224 C   0  0  0  0  0  0  0  0  0  0  0  0
    3.4740   -9.0387   16.5022 C   0  0  0  0  0  0  0  0  0  0  0  0
    6.8384   -7.9290   17.5282 N   0  0  0  0  0  0  0  0  0  0  0  0
    9.4126   -5.9853   18.4899 C   0  0  0  0  0  0  0  0  0  0  0  0
    4.2064  -10.3242   18.3302 C   0  0  0  0  0  0  0  0  0  0  0  0
    9.6599   -4.1551   16.4796 N   0  0  0  0  0  0  0  0  0  0  0  0
    7.0644   -6.4612   15.7375 N   0  0  0  0  0  0  0  0  0  0  0  0
    5.3549   -9.6322   18.3190 C   0  0  0  0  0  0  0  0  0  0  0  0
   10.3704   -4.9638   18.6510 C   0  0  0  0  0  0  0  0  0  0  0  0
    5.5935   -8.6419   17.4234 C   0  0  0  0  0  0  0  0  0  0  0  0
   13.0726   -4.6648   23.3394 O   0  0  0  0  0  0  0  0  0  0  0  0
    8.5955   -6.0705   17.3996 C   0  0  0  0  0  0  0  0  0  0  0  0
    4.6223   -8.3832   16.5030 C   0  0  0  0  0  0  0  0  0  0  0  0
   12.4690   -5.2624   19.9024 C   0  0  0  0  0  0  0  0  0  0  0  0
    3.2548   -9.9919   17.4189 C   0  0  0  0  0  0  0  0  0  0  0  0
   12.4767   -4.7393   22.1790 C   0  0  0  0  0  0  0  0  0  0  0  0
    7.8593   -5.3772   15.3569 N   0  0  0  0  0  0  0  0  0  0  0  0
    7.4412   -6.9038   16.9283 C   0  0  0  0  0  0  0  0  0  0  0  0
  1 21  4  0
  1 23  4  0
  2  5  1  0
  2 13  4  0
  2 16  4  0
  3  6  4  0
  3  7  4  0
  4 13  4  0
  4 19  4  0
  4 24  4  0
  6 23  4  0
  7 16  1  0
  7 21  4  0
  8 18  1  0
  9 20  4  0
  9 22  4  0
 10 17  1  0
 10 25  1  0
 11 16  4  0
 11 19  4  0
 12 15  4  0
 12 22  4  0
 14 24  4  0
 14 25  4  0
 15 17  4  0
 17 20  4  0
 18 23  1  0
 19 25  4  0
M  END
$$$$

 Created by Python create_sdf_string function

 25 28  0  0  0  0  0  0  0  0999 V2000
   13.1533   -5.2399   21.0682 C   0  0  0  0  0  0  0  0  0  0  0  0
   10.4729   -4.0295   17.6135 C   0  0  0  0  0  0  0  0  0  0  0  0
   10.4789   -4.3641   20.9564 C   0  0  0  0  0  0  0  0  0  0  0  0
    8.7421   -5.1412   16.3650 C   0  0  0  0  0  0  0  0  0  0  0  0
   11.4353   -2.9204   17.8044 C   0  0  0  0  0  0  0  0  0  0  0  0
   11.1529   -4.3028   22.1277 C   0  0  0  0  0  0  0  0  0  0  0  0
   11.1290   -4.8502   19.8052 C   0  0  0  0  0  0  0  0  0  0  0  0
   12.4329   -4.2159   24.4224 C   0  0  0  0  0  0  0  0  0  0  0  0
    3.4740   -9.0387   16.5022 C   0  0  0  0  0  0  0  0  0  0  0  0
    6.8384   -7.9290   17.5282 N   0  0  0  0  0  0  0  0  0  0  0  0
    9.4126   -5.9853   18.4899 C   0  0  0  0  0  0  0  0  0  0  0  0
    4.2064  -10.3242   18.3302 C   0  0  0  0  0  0  0  0  0  0  0  0
    9.6599   -4.1551   16.4796 N   0  0  0  0  0  0  0  0  0  0  0  0
    7.0644   -6.4612   15.7375 N   0  0  0  0  0  0  0  0  0  0  0  0
    5.3549   -9.6322   18.3190 C   0  0  0  0  0  0  0  0  0  0  0  0
   10.3704   -4.9638   18.6510 C   0  0  0  0  0  0  0  0  0  0  0  0
    5.5935   -8.6419   17.4234 C   0  0  0  0  0  0  0  0  0  0  0  0
   13.0726   -4.6648   23.3394 O   0  0  0  0  0  0  0  0  0  0  0  0
    8.5955   -6.0705   17.3996 C   0  0  0  0  0  0  0  0  0  0  0  0
    4.6223   -8.3832   16.5030 C   0  0  0  0  0  0  0  0  0  0  0  0
   12.4690   -5.2624   19.9024 C   0  0  0  0  0  0  0  0  0  0  0  0
    3.2548   -9.9919   17.4189 C   0  0  0  0  0  0  0  0  0  0  0  0
   12.4767   -4.7393   22.1790 C   0  0  0  0  0  0  0  0  0  0  0  0
    7.8593   -5.3772   15.3569 N   0  0  0  0  0  0  0  0  0  0  0  0
    7.4412   -6.9038   16.9283 C   0  0  0  0  0  0  0  0  0  0  0  0
  1 21  4  0
  1 23  4  0
  2  5  1  0
  2 13  4  0
  2 16  4  0
  3  6  4  0
  3  7  4  0
  4 13  4  0
  4 19  4  0
  4 24  4  0
  6 23  4  0
  7 16  1  0
  7 21  4  0
  8 18  1  0
  9 20  4  0
  9 22  4  0
 10 17  1  0
 10 25  1  0
 11 16  4  0
 11 19  4  0
 12 15  4  0
 12 22  4  0
 14 24  4  0
 14 25  4  0
 15 17  4  0
 17 20  4  0
 18 23  1  0
 19 25  4  0
M  END
$$$$

 Created by Python create_sdf_string function

 25 28  0  0  0  0  0  0  0  0999 V2000
   13.1533   -5.2399   21.0682 C   0  0  0  0  0  0  0  0  0  0  0  0
   10.4729   -4.0295   17.6135 C   0  0  0  0  0  0  0  0  0  0  0  0
   10.4789   -4.3641   20.9564 C   0  0  0  0  0  0  0  0  0  0  0  0
    8.7421   -5.1412   16.3650 C   0  0  0  0  0  0  0  0  0  0  0  0
   11.4353   -2.9204   17.8044 C   0  0  0  0  0  0  0  0  0  0  0  0
   11.1529   -4.3028   22.1277 C   0  0  0  0  0  0  0  0  0  0  0  0
   11.1290   -4.8502   19.8052 C   0  0  0  0  0  0  0  0  0  0  0  0
   12.4329   -4.2159   24.4224 C   0  0  0  0  0  0  0  0  0  0  0  0
    3.4740   -9.0387   16.5022 C   0  0  0  0  0  0  0  0  0  0  0  0
    6.8384   -7.9290   17.5282 N   0  0  0  0  0  0  0  0  0  0  0  0
    9.4126   -5.9853   18.4899 C   0  0  0  0  0  0  0  0  0  0  0  0
    4.2064  -10.3242   18.3302 C   0  0  0  0  0  0  0  0  0  0  0  0
    9.6599   -4.1551   16.4796 N   0  0  0  0  0  0  0  0  0  0  0  0
    7.0644   -6.4612   15.7375 N   0  0  0  0  0  0  0  0  0  0  0  0
    5.3549   -9.6322   18.3190 C   0  0  0  0  0  0  0  0  0  0  0  0
   10.3704   -4.9638   18.6510 C   0  0  0  0  0  0  0  0  0  0  0  0
    5.5935   -8.6419   17.4234 C   0  0  0  0  0  0  0  0  0  0  0  0
   13.0726   -4.6648   23.3394 O   0  0  0  0  0  0  0  0  0  0  0  0
    8.5955   -6.0705   17.3996 C   0  0  0  0  0  0  0  0  0  0  0  0
    4.6223   -8.3832   16.5030 C   0  0  0  0  0  0  0  0  0  0  0  0
   12.4690   -5.2624   19.9024 C   0  0  0  0  0  0  0  0  0  0  0  0
    3.2548   -9.9919   17.4189 C   0  0  0  0  0  0  0  0  0  0  0  0
   12.4767   -4.7393   22.1790 C   0  0  0  0  0  0  0  0  0  0  0  0
    7.8593   -5.3772   15.3569 N   0  0  0  0  0  0  0  0  0  0  0  0
    7.4412   -6.9038   16.9283 C   0  0  0  0  0  0  0  0  0  0  0  0
  1 21  4  0
  1 23  4  0
  2  5  1  0
  2 13  4  0
  2 16  4  0
  3  6  4  0
  3  7  4  0
  4 13  4  0
  4 19  4  0
  4 24  4  0
  6 23  4  0
  7 16  1  0
  7 21  4  0
  8 18  1  0
  9 20  4  0
  9 22  4  0
 10 17  1  0
 10 25  1  0
 11 16  4  0
 11 19  4  0
 12 15  4  0
 12 22  4  0
 14 24  4  0
 14 25  4  0
 15 17  4  0
 17 20  4  0
 18 23  1  0
 19 25  4  0
M  END
$$$$

 Created by Python create_sdf_string function

 25 28  0  0  0  0  0  0  0  0999 V2000
   13.1533   -5.2399   21.0682 C   0  0  0  0  0  0  0  0  0  0  0  0
   10.4729   -4.0295   17.6135 C   0  0  0  0  0  0  0  0  0  0  0  0
   10.4789   -4.3641   20.9564 C   0  0  0  0  0  0  0  0  0  0  0  0
    8.7421   -5.1412   16.3650 C   0  0  0  0  0  0  0  0  0  0  0  0
   11.4353   -2.9204   17.8044 C   0  0  0  0  0  0  0  0  0  0  0  0
   11.1529   -4.3028   22.1277 C   0  0  0  0  0  0  0  0  0  0  0  0
   11.1290   -4.8502   19.8052 C   0  0  0  0  0  0  0  0  0  0  0  0
   12.4329   -4.2159   24.4224 C   0  0  0  0  0  0  0  0  0  0  0  0
    3.4740   -9.0387   16.5022 C   0  0  0  0  0  0  0  0  0  0  0  0
    6.8384   -7.9290   17.5282 N   0  0  0  0  0  0  0  0  0  0  0  0
    9.4126   -5.9853   18.4899 C   0  0  0  0  0  0  0  0  0  0  0  0
    4.2064  -10.3242   18.3302 C   0  0  0  0  0  0  0  0  0  0  0  0
    9.6599   -4.1551   16.4796 N   0  0  0  0  0  0  0  0  0  0  0  0
    7.0644   -6.4612   15.7375 N   0  0  0  0  0  0  0  0  0  0  0  0
    5.3549   -9.6322   18.3190 C   0  0  0  0  0  0  0  0  0  0  0  0
   10.3704   -4.9638   18.6510 C   0  0  0  0  0  0  0  0  0  0  0  0
    5.5935   -8.6419   17.4234 C   0  0  0  0  0  0  0  0  0  0  0  0
   13.0726   -4.6648   23.3394 O   0  0  0  0  0  0  0  0  0  0  0  0
    8.5955   -6.0705   17.3996 C   0  0  0  0  0  0  0  0  0  0  0  0
    4.6223   -8.3832   16.5030 C   0  0  0  0  0  0  0  0  0  0  0  0
   12.4690   -5.2624   19.9024 C   0  0  0  0  0  0  0  0  0  0  0  0
    3.2548   -9.9919   17.4189 C   0  0  0  0  0  0  0  0  0  0  0  0
   12.4767   -4.7393   22.1790 C   0  0  0  0  0  0  0  0  0  0  0  0
    7.8593   -5.3772   15.3569 N   0  0  0  0  0  0  0  0  0  0  0  0
    7.4412   -6.9038   16.9283 C   0  0  0  0  0  0  0  0  0  0  0  0
  1 21  4  0
  1 23  4  0
  2  5  1  0
  2 13  4  0
  2 16  4  0
  3  6  4  0
  3  7  4  0
  4 13  4  0
  4 19  4  0
  4 24  4  0
  6 23  4  0
  7 16  1  0
  7 21  4  0
  8 18  1  0
  9 20  4  0
  9 22  4  0
 10 17  1  0
 10 25  1  0
 11 16  4  0
 11 19  4  0
 12 15  4  0
 12 22  4  0
 14 24  4  0
 14 25  4  0
 15 17  4  0
 17 20  4  0
 18 23  1  0
 19 25  4  0
M  END
$$$$

 Created by Python create_sdf_string function

 25 28  0  0  0  0  0  0  0  0999 V2000
   13.1533   -5.2399   21.0682 C   0  0  0  0  0  0  0  0  0  0  0  0
   10.4729   -4.0295   17.6135 C   0  0  0  0  0  0  0  0  0  0  0  0
   10.4789   -4.3641   20.9564 C   0  0  0  0  0  0  0  0  0  0  0  0
    8.7421   -5.1412   16.3650 C   0  0  0  0  0  0  0  0  0  0  0  0
   11.4353   -2.9204   17.8044 C   0  0  0  0  0  0  0  0  0  0  0  0
   11.1529   -4.3028   22.1277 C   0  0  0  0  0  0  0  0  0  0  0  0
   11.1290   -4.8502   19.8052 C   0  0  0  0  0  0  0  0  0  0  0  0
   12.4329   -4.2159   24.4224 C   0  0  0  0  0  0  0  0  0  0  0  0
    3.4740   -9.0387   16.5022 C   0  0  0  0  0  0  0  0  0  0  0  0
    6.8384   -7.9290   17.5282 N   0  0  0  0  0  0  0  0  0  0  0  0
    9.4126   -5.9853   18.4899 C   0  0  0  0  0  0  0  0  0  0  0  0
    4.2064  -10.3242   18.3302 C   0  0  0  0  0  0  0  0  0  0  0  0
    9.6599   -4.1551   16.4796 N   0  0  0  0  0  0  0  0  0  0  0  0
    7.0644   -6.4612   15.7375 N   0  0  0  0  0  0  0  0  0  0  0  0
    5.3549   -9.6322   18.3190 C   0  0  0  0  0  0  0  0  0  0  0  0
   10.3704   -4.9638   18.6510 C   0  0  0  0  0  0  0  0  0  0  0  0
    5.5935   -8.6419   17.4234 C   0  0  0  0  0  0  0  0  0  0  0  0
   13.0726   -4.6648   23.3394 O   0  0  0  0  0  0  0  0  0  0  0  0
    8.5955   -6.0705   17.3996 C   0  0  0  0  0  0  0  0  0  0  0  0
    4.6223   -8.3832   16.5030 C   0  0  0  0  0  0  0  0  0  0  0  0
   12.4690   -5.2624   19.9024 C   0  0  0  0  0  0  0  0  0  0  0  0
    3.2548   -9.9919   17.4189 C   0  0  0  0  0  0  0  0  0  0  0  0
   12.4767   -4.7393   22.1790 C   0  0  0  0  0  0  0  0  0  0  0  0
    7.8593   -5.3772   15.3569 N   0  0  0  0  0  0  0  0  0  0  0  0
    7.4412   -6.9038   16.9283 C   0  0  0  0  0  0  0  0  0  0  0  0
  1 21  4  0
  1 23  4  0
  2  5  1  0
  2 13  4  0
  2 16  4  0
  3  6  4  0
  3  7  4  0
  4 13  4  0
  4 19  4  0
  4 24  4  0
  6 23  4  0
  7 16  1  0
  7 21  4  0
  8 18  1  0
  9 20  4  0
  9 22  4  0
 10 17  1  0
 10 25  1  0
 11 16  4  0
 11 19  4  0
 12 15  4  0
 12 22  4  0
 14 24  4  0
 14 25  4  0
 15 17  4  0
 17 20  4  0
 18 23  1  0
 19 25  4  0
M  END
$$$$

 Created by Python create_sdf_string function

 25 28  0  0  0  0  0  0  0  0999 V2000
   13.1533   -5.2399   21.0682 C   0  0  0  0  0  0  0  0  0  0  0  0
   10.4729   -4.0295   17.6135 C   0  0  0  0  0  0  0  0  0  0  0  0
   10.4789   -4.3641   20.9564 C   0  0  0  0  0  0  0  0  0  0  0  0
    8.7421   -5.1412   16.3650 C   0  0  0  0  0  0  0  0  0  0  0  0
   11.4353   -2.9204   17.8044 C   0  0  0  0  0  0  0  0  0  0  0  0
   11.1529   -4.3028   22.1277 C   0  0  0  0  0  0  0  0  0  0  0  0
   11.1290   -4.8502   19.8052 C   0  0  0  0  0  0  0  0  0  0  0  0
   12.4329   -4.2159   24.4224 C   0  0  0  0  0  0  0  0  0  0  0  0
    3.4740   -9.0387   16.5022 C   0  0  0  0  0  0  0  0  0  0  0  0
    6.8384   -7.9290   17.5282 N   0  0  0  0  0  0  0  0  0  0  0  0
    9.4126   -5.9853   18.4899 C   0  0  0  0  0  0  0  0  0  0  0  0
    4.2064  -10.3242   18.3302 C   0  0  0  0  0  0  0  0  0  0  0  0
    9.6599   -4.1551   16.4796 N   0  0  0  0  0  0  0  0  0  0  0  0
    7.0644   -6.4612   15.7375 N   0  0  0  0  0  0  0  0  0  0  0  0
    5.3549   -9.6322   18.3190 C   0  0  0  0  0  0  0  0  0  0  0  0
   10.3704   -4.9638   18.6510 C   0  0  0  0  0  0  0  0  0  0  0  0
    5.5935   -8.6419   17.4234 C   0  0  0  0  0  0  0  0  0  0  0  0
   13.0726   -4.6648   23.3394 O   0  0  0  0  0  0  0  0  0  0  0  0
    8.5955   -6.0705   17.3996 C   0  0  0  0  0  0  0  0  0  0  0  0
    4.6223   -8.3832   16.5030 C   0  0  0  0  0  0  0  0  0  0  0  0
   12.4690   -5.2624   19.9024 C   0  0  0  0  0  0  0  0  0  0  0  0
    3.2548   -9.9919   17.4189 C   0  0  0  0  0  0  0  0  0  0  0  0
   12.4767   -4.7393   22.1790 C   0  0  0  0  0  0  0  0  0  0  0  0
    7.8593   -5.3772   15.3569 N   0  0  0  0  0  0  0  0  0  0  0  0
    7.4412   -6.9038   16.9283 C   0  0  0  0  0  0  0  0  0  0  0  0
  1 21  4  0
  1 23  4  0
  2  5  1  0
  2 13  4  0
  2 16  4  0
  3  6  4  0
  3  7  4  0
  4 13  4  0
  4 19  4  0
  4 24  4  0
  6 23  4  0
  7 16  1  0
  7 21  4  0
  8 18  1  0
  9 20  4  0
  9 22  4  0
 10 17  1  0
 10 25  1  0
 11 16  4  0
 11 19  4  0
 12 15  4  0
 12 22  4  0
 14 24  4  0
 14 25  4  0
 15 17  4  0
 17 20  4  0
 18 23  1  0
 19 25  4  0
M  END
$$$$

 Created by Python create_sdf_string function

 25 28  0  0  0  0  0  0  0  0999 V2000
   13.1533   -5.2399   21.0682 C   0  0  0  0  0  0  0  0  0  0  0  0
   10.4729   -4.0295   17.6135 C   0  0  0  0  0  0  0  0  0  0  0  0
   10.4789   -4.3641   20.9564 C   0  0  0  0  0  0  0  0  0  0  0  0
    8.7421   -5.1412   16.3650 C   0  0  0  0  0  0  0  0  0  0  0  0
   11.4353   -2.9204   17.8044 C   0  0  0  0  0  0  0  0  0  0  0  0
   11.1529   -4.3028   22.1277 C   0  0  0  0  0  0  0  0  0  0  0  0
   11.1290   -4.8502   19.8052 C   0  0  0  0  0  0  0  0  0  0  0  0
   12.4329   -4.2159   24.4224 C   0  0  0  0  0  0  0  0  0  0  0  0
    3.4740   -9.0387   16.5022 C   0  0  0  0  0  0  0  0  0  0  0  0
    6.8384   -7.9290   17.5282 N   0  0  0  0  0  0  0  0  0  0  0  0
    9.4126   -5.9853   18.4899 C   0  0  0  0  0  0  0  0  0  0  0  0
    4.2064  -10.3242   18.3302 C   0  0  0  0  0  0  0  0  0  0  0  0
    9.6599   -4.1551   16.4796 N   0  0  0  0  0  0  0  0  0  0  0  0
    7.0644   -6.4612   15.7375 N   0  0  0  0  0  0  0  0  0  0  0  0
    5.3549   -9.6322   18.3190 C   0  0  0  0  0  0  0  0  0  0  0  0
   10.3704   -4.9638   18.6510 C   0  0  0  0  0  0  0  0  0  0  0  0
    5.5935   -8.6419   17.4234 C   0  0  0  0  0  0  0  0  0  0  0  0
   13.0726   -4.6648   23.3394 O   0  0  0  0  0  0  0  0  0  0  0  0
    8.5955   -6.0705   17.3996 C   0  0  0  0  0  0  0  0  0  0  0  0
    4.6223   -8.3832   16.5030 C   0  0  0  0  0  0  0  0  0  0  0  0
   12.4690   -5.2624   19.9024 C   0  0  0  0  0  0  0  0  0  0  0  0
    3.2548   -9.9919   17.4189 C   0  0  0  0  0  0  0  0  0  0  0  0
   12.4767   -4.7393   22.1790 C   0  0  0  0  0  0  0  0  0  0  0  0
    7.8593   -5.3772   15.3569 N   0  0  0  0  0  0  0  0  0  0  0  0
    7.4412   -6.9038   16.9283 C   0  0  0  0  0  0  0  0  0  0  0  0
  1 21  4  0
  1 23  4  0
  2  5  1  0
  2 13  4  0
  2 16  4  0
  3  6  4  0
  3  7  4  0
  4 13  4  0
  4 19  4  0
  4 24  4  0
  6 23  4  0
  7 16  1  0
  7 21  4  0
  8 18  1  0
  9 20  4  0
  9 22  4  0
 10 17  1  0
 10 25  1  0
 11 16  4  0
 11 19  4  0
 12 15  4  0
 12 22  4  0
 14 24  4  0
 14 25  4  0
 15 17  4  0
 17 20  4  0
 18 23  1  0
 19 25  4  0
M  END
$$$$

 Created by Python create_sdf_string function

 25 28  0  0  0  0  0  0  0  0999 V2000
   13.1533   -5.2399   21.0682 C   0  0  0  0  0  0  0  0  0  0  0  0
   10.4729   -4.0295   17.6135 C   0  0  0  0  0  0  0  0  0  0  0  0
   10.4789   -4.3641   20.9564 C   0  0  0  0  0  0  0  0  0  0  0  0
    8.7421   -5.1412   16.3650 C   0  0  0  0  0  0  0  0  0  0  0  0
   11.4353   -2.9204   17.8044 C   0  0  0  0  0  0  0  0  0  0  0  0
   11.1529   -4.3028   22.1277 C   0  0  0  0  0  0  0  0  0  0  0  0
   11.1290   -4.8502   19.8052 C   0  0  0  0  0  0  0  0  0  0  0  0
   12.4329   -4.2159   24.4224 C   0  0  0  0  0  0  0  0  0  0  0  0
    3.4740   -9.0387   16.5022 C   0  0  0  0  0  0  0  0  0  0  0  0
    6.8384   -7.9290   17.5282 N   0  0  0  0  0  0  0  0  0  0  0  0
    9.4126   -5.9853   18.4899 C   0  0  0  0  0  0  0  0  0  0  0  0
    4.2064  -10.3242   18.3302 C   0  0  0  0  0  0  0  0  0  0  0  0
    9.6599   -4.1551   16.4796 N   0  0  0  0  0  0  0  0  0  0  0  0
    7.0644   -6.4612   15.7375 N   0  0  0  0  0  0  0  0  0  0  0  0
    5.3549   -9.6322   18.3190 C   0  0  0  0  0  0  0  0  0  0  0  0
   10.3704   -4.9638   18.6510 C   0  0  0  0  0  0  0  0  0  0  0  0
    5.5935   -8.6419   17.4234 C   0  0  0  0  0  0  0  0  0  0  0  0
   13.0726   -4.6648   23.3394 O   0  0  0  0  0  0  0  0  0  0  0  0
    8.5955   -6.0705   17.3996 C   0  0  0  0  0  0  0  0  0  0  0  0
    4.6223   -8.3832   16.5030 C   0  0  0  0  0  0  0  0  0  0  0  0
   12.4690   -5.2624   19.9024 C   0  0  0  0  0  0  0  0  0  0  0  0
    3.2548   -9.9919   17.4189 C   0  0  0  0  0  0  0  0  0  0  0  0
   12.4767   -4.7393   22.1790 C   0  0  0  0  0  0  0  0  0  0  0  0
    7.8593   -5.3772   15.3569 N   0  0  0  0  0  0  0  0  0  0  0  0
    7.4412   -6.9038   16.9283 C   0  0  0  0  0  0  0  0  0  0  0  0
  1 21  4  0
  1 23  4  0
  2  5  1  0
  2 13  4  0
  2 16  4  0
  3  6  4  0
  3  7  4  0
  4 13  4  0
  4 19  4  0
  4 24  4  0
  6 23  4  0
  7 16  1  0
  7 21  4  0
  8 18  1  0
  9 20  4  0
  9 22  4  0
 10 17  1  0
 10 25  1  0
 11 16  4  0
 11 19  4  0
 12 15  4  0
 12 22  4  0
 14 24  4  0
 14 25  4  0
 15 17  4  0
 17 20  4  0
 18 23  1  0
 19 25  4  0
M  END
$$$$

 Created by Python create_sdf_string function

 25 28  0  0  0  0  0  0  0  0999 V2000
   13.1533   -5.2399   21.0682 C   0  0  0  0  0  0  0  0  0  0  0  0
   10.4729   -4.0295   17.6135 C   0  0  0  0  0  0  0  0  0  0  0  0
   10.4789   -4.3641   20.9564 C   0  0  0  0  0  0  0  0  0  0  0  0
    8.7421   -5.1412   16.3650 C   0  0  0  0  0  0  0  0  0  0  0  0
   11.4353   -2.9204   17.8044 C   0  0  0  0  0  0  0  0  0  0  0  0
   11.1529   -4.3028   22.1277 C   0  0  0  0  0  0  0  0  0  0  0  0
   11.1290   -4.8502   19.8052 C   0  0  0  0  0  0  0  0  0  0  0  0
   12.4329   -4.2159   24.4224 C   0  0  0  0  0  0  0  0  0  0  0  0
    3.4740   -9.0387   16.5022 C   0  0  0  0  0  0  0  0  0  0  0  0
    6.8384   -7.9290   17.5282 N   0  0  0  0  0  0  0  0  0  0  0  0
    9.4126   -5.9853   18.4899 C   0  0  0  0  0  0  0  0  0  0  0  0
    4.2064  -10.3242   18.3302 C   0  0  0  0  0  0  0  0  0  0  0  0
    9.6599   -4.1551   16.4796 N   0  0  0  0  0  0  0  0  0  0  0  0
    7.0644   -6.4612   15.7375 N   0  0  0  0  0  0  0  0  0  0  0  0
    5.3549   -9.6322   18.3190 C   0  0  0  0  0  0  0  0  0  0  0  0
   10.3704   -4.9638   18.6510 C   0  0  0  0  0  0  0  0  0  0  0  0
    5.5935   -8.6419   17.4234 C   0  0  0  0  0  0  0  0  0  0  0  0
   13.0726   -4.6648   23.3394 O   0  0  0  0  0  0  0  0  0  0  0  0
    8.5955   -6.0705   17.3996 C   0  0  0  0  0  0  0  0  0  0  0  0
    4.6223   -8.3832   16.5030 C   0  0  0  0  0  0  0  0  0  0  0  0
   12.4690   -5.2624   19.9024 C   0  0  0  0  0  0  0  0  0  0  0  0
    3.2548   -9.9919   17.4189 C   0  0  0  0  0  0  0  0  0  0  0  0
   12.4767   -4.7393   22.1790 C   0  0  0  0  0  0  0  0  0  0  0  0
    7.8593   -5.3772   15.3569 N   0  0  0  0  0  0  0  0  0  0  0  0
    7.4412   -6.9038   16.9283 C   0  0  0  0  0  0  0  0  0  0  0  0
  1 21  4  0
  1 23  4  0
  2  5  1  0
  2 13  4  0
  2 16  4  0
  3  6  4  0
  3  7  4  0
  4 13  4  0
  4 19  4  0
  4 24  4  0
  6 23  4  0
  7 16  1  0
  7 21  4  0
  8 18  1  0
  9 20  4  0
  9 22  4  0
 10 17  1  0
 10 25  1  0
 11 16  4  0
 11 19  4  0
 12 15  4  0
 12 22  4  0
 14 24  4  0
 14 25  4  0
 15 17  4  0
 17 20  4  0
 18 23  1  0
 19 25  4  0
M  END
$$$$

 Created by Python create_sdf_string function

 25 28  0  0  0  0  0  0  0  0999 V2000
   13.1533   -5.2399   21.0682 C   0  0  0  0  0  0  0  0  0  0  0  0
   10.4729   -4.0295   17.6135 C   0  0  0  0  0  0  0  0  0  0  0  0
   10.4789   -4.3641   20.9564 C   0  0  0  0  0  0  0  0  0  0  0  0
    8.7421   -5.1412   16.3650 C   0  0  0  0  0  0  0  0  0  0  0  0
   11.4353   -2.9204   17.8044 C   0  0  0  0  0  0  0  0  0  0  0  0
   11.1529   -4.3028   22.1277 C   0  0  0  0  0  0  0  0  0  0  0  0
   11.1290   -4.8502   19.8052 C   0  0  0  0  0  0  0  0  0  0  0  0
   12.4329   -4.2159   24.4224 C   0  0  0  0  0  0  0  0  0  0  0  0
    3.4740   -9.0387   16.5022 C   0  0  0  0  0  0  0  0  0  0  0  0
    6.8384   -7.9290   17.5282 N   0  0  0  0  0  0  0  0  0  0  0  0
    9.4126   -5.9853   18.4899 C   0  0  0  0  0  0  0  0  0  0  0  0
    4.2064  -10.3242   18.3302 C   0  0  0  0  0  0  0  0  0  0  0  0
    9.6599   -4.1551   16.4796 N   0  0  0  0  0  0  0  0  0  0  0  0
    7.0644   -6.4612   15.7375 N   0  0  0  0  0  0  0  0  0  0  0  0
    5.3549   -9.6322   18.3190 C   0  0  0  0  0  0  0  0  0  0  0  0
   10.3704   -4.9638   18.6510 C   0  0  0  0  0  0  0  0  0  0  0  0
    5.5935   -8.6419   17.4234 C   0  0  0  0  0  0  0  0  0  0  0  0
   13.0726   -4.6648   23.3394 O   0  0  0  0  0  0  0  0  0  0  0  0
    8.5955   -6.0705   17.3996 C   0  0  0  0  0  0  0  0  0  0  0  0
    4.6223   -8.3832   16.5030 C   0  0  0  0  0  0  0  0  0  0  0  0
   12.4690   -5.2624   19.9024 C   0  0  0  0  0  0  0  0  0  0  0  0
    3.2548   -9.9919   17.4189 C   0  0  0  0  0  0  0  0  0  0  0  0
   12.4767   -4.7393   22.1790 C   0  0  0  0  0  0  0  0  0  0  0  0
    7.8593   -5.3772   15.3569 N   0  0  0  0  0  0  0  0  0  0  0  0
    7.4412   -6.9038   16.9283 C   0  0  0  0  0  0  0  0  0  0  0  0
  1 21  4  0
  1 23  4  0
  2  5  1  0
  2 13  4  0
  2 16  4  0
  3  6  4  0
  3  7  4  0
  4 13  4  0
  4 19  4  0
  4 24  4  0
  6 23  4  0
  7 16  1  0
  7 21  4  0
  8 18  1  0
  9 20  4  0
  9 22  4  0
 10 17  1  0
 10 25  1  0
 11 16  4  0
 11 19  4  0
 12 15  4  0
 12 22  4  0
 14 24  4  0
 14 25  4  0
 15 17  4  0
 17 20  4  0
 18 23  1  0
 19 25  4  0
M  END
$$$$

 Created by Python create_sdf_string function

 25 28  0  0  0  0  0  0  0  0999 V2000
   13.1533   -5.2399   21.0682 C   0  0  0  0  0  0  0  0  0  0  0  0
   10.4729   -4.0295   17.6135 C   0  0  0  0  0  0  0  0  0  0  0  0
   10.4789   -4.3641   20.9564 C   0  0  0  0  0  0  0  0  0  0  0  0
    8.7421   -5.1412   16.3650 C   0  0  0  0  0  0  0  0  0  0  0  0
   11.4353   -2.9204   17.8044 C   0  0  0  0  0  0  0  0  0  0  0  0
   11.1529   -4.3028   22.1277 C   0  0  0  0  0  0  0  0  0  0  0  0
   11.1290   -4.8502   19.8052 C   0  0  0  0  0  0  0  0  0  0  0  0
   12.4329   -4.2159   24.4224 C   0  0  0  0  0  0  0  0  0  0  0  0
    3.4740   -9.0387   16.5022 C   0  0  0  0  0  0  0  0  0  0  0  0
    6.8384   -7.9290   17.5282 N   0  0  0  0  0  0  0  0  0  0  0  0
    9.4126   -5.9853   18.4899 C   0  0  0  0  0  0  0  0  0  0  0  0
    4.2064  -10.3242   18.3302 C   0  0  0  0  0  0  0  0  0  0  0  0
    9.6599   -4.1551   16.4796 N   0  0  0  0  0  0  0  0  0  0  0  0
    7.0644   -6.4612   15.7375 N   0  0  0  0  0  0  0  0  0  0  0  0
    5.3549   -9.6322   18.3190 C   0  0  0  0  0  0  0  0  0  0  0  0
   10.3704   -4.9638   18.6510 C   0  0  0  0  0  0  0  0  0  0  0  0
    5.5935   -8.6419   17.4234 C   0  0  0  0  0  0  0  0  0  0  0  0
   13.0726   -4.6648   23.3394 O   0  0  0  0  0  0  0  0  0  0  0  0
    8.5955   -6.0705   17.3996 C   0  0  0  0  0  0  0  0  0  0  0  0
    4.6223   -8.3832   16.5030 C   0  0  0  0  0  0  0  0  0  0  0  0
   12.4690   -5.2624   19.9024 C   0  0  0  0  0  0  0  0  0  0  0  0
    3.2548   -9.9919   17.4189 C   0  0  0  0  0  0  0  0  0  0  0  0
   12.4767   -4.7393   22.1790 C   0  0  0  0  0  0  0  0  0  0  0  0
    7.8593   -5.3772   15.3569 N   0  0  0  0  0  0  0  0  0  0  0  0
    7.4412   -6.9038   16.9283 C   0  0  0  0  0  0  0  0  0  0  0  0
  1 21  4  0
  1 23  4  0
  2  5  1  0
  2 13  4  0
  2 16  4  0
  3  6  4  0
  3  7  4  0
  4 13  4  0
  4 19  4  0
  4 24  4  0
  6 23  4  0
  7 16  1  0
  7 21  4  0
  8 18  1  0
  9 20  4  0
  9 22  4  0
 10 17  1  0
 10 25  1  0
 11 16  4  0
 11 19  4  0
 12 15  4  0
 12 22  4  0
 14 24  4  0
 14 25  4  0
 15 17  4  0
 17 20  4  0
 18 23  1  0
 19 25  4  0
M  END
$$$$

 Created by Python create_sdf_string function

 25 28  0  0  0  0  0  0  0  0999 V2000
   13.1533   -5.2399   21.0682 C   0  0  0  0  0  0  0  0  0  0  0  0
   10.4729   -4.0295   17.6135 C   0  0  0  0  0  0  0  0  0  0  0  0
   10.4789   -4.3641   20.9564 C   0  0  0  0  0  0  0  0  0  0  0  0
    8.7421   -5.1412   16.3650 C   0  0  0  0  0  0  0  0  0  0  0  0
   11.4353   -2.9204   17.8044 C   0  0  0  0  0  0  0  0  0  0  0  0
   11.1529   -4.3028   22.1277 C   0  0  0  0  0  0  0  0  0  0  0  0
   11.1290   -4.8502   19.8052 C   0  0  0  0  0  0  0  0  0  0  0  0
   12.4329   -4.2159   24.4224 C   0  0  0  0  0  0  0  0  0  0  0  0
    3.4740   -9.0387   16.5022 C   0  0  0  0  0  0  0  0  0  0  0  0
    6.8384   -7.9290   17.5282 N   0  0  0  0  0  0  0  0  0  0  0  0
    9.4126   -5.9853   18.4899 C   0  0  0  0  0  0  0  0  0  0  0  0
    4.2064  -10.3242   18.3302 C   0  0  0  0  0  0  0  0  0  0  0  0
    9.6599   -4.1551   16.4796 N   0  0  0  0  0  0  0  0  0  0  0  0
    7.0644   -6.4612   15.7375 N   0  0  0  0  0  0  0  0  0  0  0  0
    5.3549   -9.6322   18.3190 C   0  0  0  0  0  0  0  0  0  0  0  0
   10.3704   -4.9638   18.6510 C   0  0  0  0  0  0  0  0  0  0  0  0
    5.5935   -8.6419   17.4234 C   0  0  0  0  0  0  0  0  0  0  0  0
   13.0726   -4.6648   23.3394 O   0  0  0  0  0  0  0  0  0  0  0  0
    8.5955   -6.0705   17.3996 C   0  0  0  0  0  0  0  0  0  0  0  0
    4.6223   -8.3832   16.5030 C   0  0  0  0  0  0  0  0  0  0  0  0
   12.4690   -5.2624   19.9024 C   0  0  0  0  0  0  0  0  0  0  0  0
    3.2548   -9.9919   17.4189 C   0  0  0  0  0  0  0  0  0  0  0  0
   12.4767   -4.7393   22.1790 C   0  0  0  0  0  0  0  0  0  0  0  0
    7.8593   -5.3772   15.3569 N   0  0  0  0  0  0  0  0  0  0  0  0
    7.4412   -6.9038   16.9283 C   0  0  0  0  0  0  0  0  0  0  0  0
  1 21  4  0
  1 23  4  0
  2  5  1  0
  2 13  4  0
  2 16  4  0
  3  6  4  0
  3  7  4  0
  4 13  4  0
  4 19  4  0
  4 24  4  0
  6 23  4  0
  7 16  1  0
  7 21  4  0
  8 18  1  0
  9 20  4  0
  9 22  4  0
 10 17  1  0
 10 25  1  0
 11 16  4  0
 11 19  4  0
 12 15  4  0
 12 22  4  0
 14 24  4  0
 14 25  4  0
 15 17  4  0
 17 20  4  0
 18 23  1  0
 19 25  4  0
M  END
$$$$

 Created by Python create_sdf_string function

 25 28  0  0  0  0  0  0  0  0999 V2000
   13.1533   -5.2399   21.0682 C   0  0  0  0  0  0  0  0  0  0  0  0
   10.4729   -4.0295   17.6135 C   0  0  0  0  0  0  0  0  0  0  0  0
   10.4789   -4.3641   20.9564 C   0  0  0  0  0  0  0  0  0  0  0  0
    8.7421   -5.1412   16.3650 C   0  0  0  0  0  0  0  0  0  0  0  0
   11.4353   -2.9204   17.8044 C   0  0  0  0  0  0  0  0  0  0  0  0
   11.1529   -4.3028   22.1277 C   0  0  0  0  0  0  0  0  0  0  0  0
   11.1290   -4.8502   19.8052 C   0  0  0  0  0  0  0  0  0  0  0  0
   12.4329   -4.2159   24.4224 C   0  0  0  0  0  0  0  0  0  0  0  0
    3.4740   -9.0387   16.5022 C   0  0  0  0  0  0  0  0  0  0  0  0
    6.8384   -7.9290   17.5282 N   0  0  0  0  0  0  0  0  0  0  0  0
    9.4126   -5.9853   18.4899 C   0  0  0  0  0  0  0  0  0  0  0  0
    4.2064  -10.3242   18.3302 C   0  0  0  0  0  0  0  0  0  0  0  0
    9.6599   -4.1551   16.4796 N   0  0  0  0  0  0  0  0  0  0  0  0
    7.0644   -6.4612   15.7375 N   0  0  0  0  0  0  0  0  0  0  0  0
    5.3549   -9.6322   18.3190 C   0  0  0  0  0  0  0  0  0  0  0  0
   10.3704   -4.9638   18.6510 C   0  0  0  0  0  0  0  0  0  0  0  0
    5.5935   -8.6419   17.4234 C   0  0  0  0  0  0  0  0  0  0  0  0
   13.0726   -4.6648   23.3394 O   0  0  0  0  0  0  0  0  0  0  0  0
    8.5955   -6.0705   17.3996 C   0  0  0  0  0  0  0  0  0  0  0  0
    4.6223   -8.3832   16.5030 C   0  0  0  0  0  0  0  0  0  0  0  0
   12.4690   -5.2624   19.9024 C   0  0  0  0  0  0  0  0  0  0  0  0
    3.2548   -9.9919   17.4189 C   0  0  0  0  0  0  0  0  0  0  0  0
   12.4767   -4.7393   22.1790 C   0  0  0  0  0  0  0  0  0  0  0  0
    7.8593   -5.3772   15.3569 N   0  0  0  0  0  0  0  0  0  0  0  0
    7.4412   -6.9038   16.9283 C   0  0  0  0  0  0  0  0  0  0  0  0
  1 21  4  0
  1 23  4  0
  2  5  1  0
  2 13  4  0
  2 16  4  0
  3  6  4  0
  3  7  4  0
  4 13  4  0
  4 19  4  0
  4 24  4  0
  6 23  4  0
  7 16  1  0
  7 21  4  0
  8 18  1  0
  9 20  4  0
  9 22  4  0
 10 17  1  0
 10 25  1  0
 11 16  4  0
 11 19  4  0
 12 15  4  0
 12 22  4  0
 14 24  4  0
 14 25  4  0
 15 17  4  0
 17 20  4  0
 18 23  1  0
 19 25  4  0
M  END
$$$$

 Created by Python create_sdf_string function

 25 28  0  0  0  0  0  0  0  0999 V2000
   13.1533   -5.2399   21.0682 C   0  0  0  0  0  0  0  0  0  0  0  0
   10.4729   -4.0295   17.6135 C   0  0  0  0  0  0  0  0  0  0  0  0
   10.4789   -4.3641   20.9564 C   0  0  0  0  0  0  0  0  0  0  0  0
    8.7421   -5.1412   16.3650 C   0  0  0  0  0  0  0  0  0  0  0  0
   11.4353   -2.9204   17.8044 C   0  0  0  0  0  0  0  0  0  0  0  0
   11.1529   -4.3028   22.1277 C   0  0  0  0  0  0  0  0  0  0  0  0
   11.1290   -4.8502   19.8052 C   0  0  0  0  0  0  0  0  0  0  0  0
   12.4329   -4.2159   24.4224 C   0  0  0  0  0  0  0  0  0  0  0  0
    3.4740   -9.0387   16.5022 C   0  0  0  0  0  0  0  0  0  0  0  0
    6.8384   -7.9290   17.5282 N   0  0  0  0  0  0  0  0  0  0  0  0
    9.4126   -5.9853   18.4899 C   0  0  0  0  0  0  0  0  0  0  0  0
    4.2064  -10.3242   18.3302 C   0  0  0  0  0  0  0  0  0  0  0  0
    9.6599   -4.1551   16.4796 N   0  0  0  0  0  0  0  0  0  0  0  0
    7.0644   -6.4612   15.7375 N   0  0  0  0  0  0  0  0  0  0  0  0
    5.3549   -9.6322   18.3190 C   0  0  0  0  0  0  0  0  0  0  0  0
   10.3704   -4.9638   18.6510 C   0  0  0  0  0  0  0  0  0  0  0  0
    5.5935   -8.6419   17.4234 C   0  0  0  0  0  0  0  0  0  0  0  0
   13.0726   -4.6648   23.3394 O   0  0  0  0  0  0  0  0  0  0  0  0
    8.5955   -6.0705   17.3996 C   0  0  0  0  0  0  0  0  0  0  0  0
    4.6223   -8.3832   16.5030 C   0  0  0  0  0  0  0  0  0  0  0  0
   12.4690   -5.2624   19.9024 C   0  0  0  0  0  0  0  0  0  0  0  0
    3.2548   -9.9919   17.4189 C   0  0  0  0  0  0  0  0  0  0  0  0
   12.4767   -4.7393   22.1790 C   0  0  0  0  0  0  0  0  0  0  0  0
    7.8593   -5.3772   15.3569 N   0  0  0  0  0  0  0  0  0  0  0  0
    7.4412   -6.9038   16.9283 C   0  0  0  0  0  0  0  0  0  0  0  0
  1 21  4  0
  1 23  4  0
  2  5  1  0
  2 13  4  0
  2 16  4  0
  3  6  4  0
  3  7  4  0
  4 13  4  0
  4 19  4  0
  4 24  4  0
  6 23  4  0
  7 16  1  0
  7 21  4  0
  8 18  1  0
  9 20  4  0
  9 22  4  0
 10 17  1  0
 10 25  1  0
 11 16  4  0
 11 19  4  0
 12 15  4  0
 12 22  4  0
 14 24  4  0
 14 25  4  0
 15 17  4  0
 17 20  4  0
 18 23  1  0
 19 25  4  0
M  END
$$$$

 Created by Python create_sdf_string function

 25 28  0  0  0  0  0  0  0  0999 V2000
   13.1533   -5.2399   21.0682 C   0  0  0  0  0  0  0  0  0  0  0  0
   10.4729   -4.0295   17.6135 C   0  0  0  0  0  0  0  0  0  0  0  0
   10.4789   -4.3641   20.9564 C   0  0  0  0  0  0  0  0  0  0  0  0
    8.7421   -5.1412   16.3650 C   0  0  0  0  0  0  0  0  0  0  0  0
   11.4353   -2.9204   17.8044 C   0  0  0  0  0  0  0  0  0  0  0  0
   11.1529   -4.3028   22.1277 C   0  0  0  0  0  0  0  0  0  0  0  0
   11.1290   -4.8502   19.8052 C   0  0  0  0  0  0  0  0  0  0  0  0
   12.4329   -4.2159   24.4224 C   0  0  0  0  0  0  0  0  0  0  0  0
    3.4740   -9.0387   16.5022 C   0  0  0  0  0  0  0  0  0  0  0  0
    6.8384   -7.9290   17.5282 N   0  0  0  0  0  0  0  0  0  0  0  0
    9.4126   -5.9853   18.4899 C   0  0  0  0  0  0  0  0  0  0  0  0
    4.2064  -10.3242   18.3302 C   0  0  0  0  0  0  0  0  0  0  0  0
    9.6599   -4.1551   16.4796 N   0  0  0  0  0  0  0  0  0  0  0  0
    7.0644   -6.4612   15.7375 N   0  0  0  0  0  0  0  0  0  0  0  0
    5.3549   -9.6322   18.3190 C   0  0  0  0  0  0  0  0  0  0  0  0
   10.3704   -4.9638   18.6510 C   0  0  0  0  0  0  0  0  0  0  0  0
    5.5935   -8.6419   17.4234 C   0  0  0  0  0  0  0  0  0  0  0  0
   13.0726   -4.6648   23.3394 O   0  0  0  0  0  0  0  0  0  0  0  0
    8.5955   -6.0705   17.3996 C   0  0  0  0  0  0  0  0  0  0  0  0
    4.6223   -8.3832   16.5030 C   0  0  0  0  0  0  0  0  0  0  0  0
   12.4690   -5.2624   19.9024 C   0  0  0  0  0  0  0  0  0  0  0  0
    3.2548   -9.9919   17.4189 C   0  0  0  0  0  0  0  0  0  0  0  0
   12.4767   -4.7393   22.1790 C   0  0  0  0  0  0  0  0  0  0  0  0
    7.8593   -5.3772   15.3569 N   0  0  0  0  0  0  0  0  0  0  0  0
    7.4412   -6.9038   16.9283 C   0  0  0  0  0  0  0  0  0  0  0  0
  1 21  4  0
  1 23  4  0
  2  5  1  0
  2 13  4  0
  2 16  4  0
  3  6  4  0
  3  7  4  0
  4 13  4  0
  4 19  4  0
  4 24  4  0
  6 23  4  0
  7 16  1  0
  7 21  4  0
  8 18  1  0
  9 20  4  0
  9 22  4  0
 10 17  1  0
 10 25  1  0
 11 16  4  0
 11 19  4  0
 12 15  4  0
 12 22  4  0
 14 24  4  0
 14 25  4  0
 15 17  4  0
 17 20  4  0
 18 23  1  0
 19 25  4  0
M  END
$$$$

 Created by Python create_sdf_string function

 25 28  0  0  0  0  0  0  0  0999 V2000
   13.1533   -5.2399   21.0682 C   0  0  0  0  0  0  0  0  0  0  0  0
   10.4729   -4.0295   17.6135 C   0  0  0  0  0  0  0  0  0  0  0  0
   10.4789   -4.3641   20.9564 C   0  0  0  0  0  0  0  0  0  0  0  0
    8.7421   -5.1412   16.3650 C   0  0  0  0  0  0  0  0  0  0  0  0
   11.4353   -2.9204   17.8044 C   0  0  0  0  0  0  0  0  0  0  0  0
   11.1529   -4.3028   22.1277 C   0  0  0  0  0  0  0  0  0  0  0  0
   11.1290   -4.8502   19.8052 C   0  0  0  0  0  0  0  0  0  0  0  0
   12.4329   -4.2159   24.4224 C   0  0  0  0  0  0  0  0  0  0  0  0
    3.4740   -9.0387   16.5022 C   0  0  0  0  0  0  0  0  0  0  0  0
    6.8384   -7.9290   17.5282 N   0  0  0  0  0  0  0  0  0  0  0  0
    9.4126   -5.9853   18.4899 C   0  0  0  0  0  0  0  0  0  0  0  0
    4.2064  -10.3242   18.3302 C   0  0  0  0  0  0  0  0  0  0  0  0
    9.6599   -4.1551   16.4796 N   0  0  0  0  0  0  0  0  0  0  0  0
    7.0644   -6.4612   15.7375 N   0  0  0  0  0  0  0  0  0  0  0  0
    5.3549   -9.6322   18.3190 C   0  0  0  0  0  0  0  0  0  0  0  0
   10.3704   -4.9638   18.6510 C   0  0  0  0  0  0  0  0  0  0  0  0
    5.5935   -8.6419   17.4234 C   0  0  0  0  0  0  0  0  0  0  0  0
   13.0726   -4.6648   23.3394 O   0  0  0  0  0  0  0  0  0  0  0  0
    8.5955   -6.0705   17.3996 C   0  0  0  0  0  0  0  0  0  0  0  0
    4.6223   -8.3832   16.5030 C   0  0  0  0  0  0  0  0  0  0  0  0
   12.4690   -5.2624   19.9024 C   0  0  0  0  0  0  0  0  0  0  0  0
    3.2548   -9.9919   17.4189 C   0  0  0  0  0  0  0  0  0  0  0  0
   12.4767   -4.7393   22.1790 C   0  0  0  0  0  0  0  0  0  0  0  0
    7.8593   -5.3772   15.3569 N   0  0  0  0  0  0  0  0  0  0  0  0
    7.4412   -6.9038   16.9283 C   0  0  0  0  0  0  0  0  0  0  0  0
  1 21  4  0
  1 23  4  0
  2  5  1  0
  2 13  4  0
  2 16  4  0
  3  6  4  0
  3  7  4  0
  4 13  4  0
  4 19  4  0
  4 24  4  0
  6 23  4  0
  7 16  1  0
  7 21  4  0
  8 18  1  0
  9 20  4  0
  9 22  4  0
 10 17  1  0
 10 25  1  0
 11 16  4  0
 11 19  4  0
 12 15  4  0
 12 22  4  0
 14 24  4  0
 14 25  4  0
 15 17  4  0
 17 20  4  0
 18 23  1  0
 19 25  4  0
M  END
$$$$

 Created by Python create_sdf_string function

 25 28  0  0  0  0  0  0  0  0999 V2000
   13.1533   -5.2399   21.0682 C   0  0  0  0  0  0  0  0  0  0  0  0
   10.4729   -4.0295   17.6135 C   0  0  0  0  0  0  0  0  0  0  0  0
   10.4789   -4.3641   20.9564 C   0  0  0  0  0  0  0  0  0  0  0  0
    8.7421   -5.1412   16.3650 C   0  0  0  0  0  0  0  0  0  0  0  0
   11.4353   -2.9204   17.8044 C   0  0  0  0  0  0  0  0  0  0  0  0
   11.1529   -4.3028   22.1277 C   0  0  0  0  0  0  0  0  0  0  0  0
   11.1290   -4.8502   19.8052 C   0  0  0  0  0  0  0  0  0  0  0  0
   12.4329   -4.2159   24.4224 C   0  0  0  0  0  0  0  0  0  0  0  0
    3.4740   -9.0387   16.5022 C   0  0  0  0  0  0  0  0  0  0  0  0
    6.8384   -7.9290   17.5282 N   0  0  0  0  0  0  0  0  0  0  0  0
    9.4126   -5.9853   18.4899 C   0  0  0  0  0  0  0  0  0  0  0  0
    4.2064  -10.3242   18.3302 C   0  0  0  0  0  0  0  0  0  0  0  0
    9.6599   -4.1551   16.4796 N   0  0  0  0  0  0  0  0  0  0  0  0
    7.0644   -6.4612   15.7375 N   0  0  0  0  0  0  0  0  0  0  0  0
    5.3549   -9.6322   18.3190 C   0  0  0  0  0  0  0  0  0  0  0  0
   10.3704   -4.9638   18.6510 C   0  0  0  0  0  0  0  0  0  0  0  0
    5.5935   -8.6419   17.4234 C   0  0  0  0  0  0  0  0  0  0  0  0
   13.0726   -4.6648   23.3394 O   0  0  0  0  0  0  0  0  0  0  0  0
    8.5955   -6.0705   17.3996 C   0  0  0  0  0  0  0  0  0  0  0  0
    4.6223   -8.3832   16.5030 C   0  0  0  0  0  0  0  0  0  0  0  0
   12.4690   -5.2624   19.9024 C   0  0  0  0  0  0  0  0  0  0  0  0
    3.2548   -9.9919   17.4189 C   0  0  0  0  0  0  0  0  0  0  0  0
   12.4767   -4.7393   22.1790 C   0  0  0  0  0  0  0  0  0  0  0  0
    7.8593   -5.3772   15.3569 N   0  0  0  0  0  0  0  0  0  0  0  0
    7.4412   -6.9038   16.9283 C   0  0  0  0  0  0  0  0  0  0  0  0
  1 21  4  0
  1 23  4  0
  2  5  1  0
  2 13  4  0
  2 16  4  0
  3  6  4  0
  3  7  4  0
  4 13  4  0
  4 19  4  0
  4 24  4  0
  6 23  4  0
  7 16  1  0
  7 21  4  0
  8 18  1  0
  9 20  4  0
  9 22  4  0
 10 17  1  0
 10 25  1  0
 11 16  4  0
 11 19  4  0
 12 15  4  0
 12 22  4  0
 14 24  4  0
 14 25  4  0
 15 17  4  0
 17 20  4  0
 18 23  1  0
 19 25  4  0
M  END
$$$$

 Created by Python create_sdf_string function

 25 28  0  0  0  0  0  0  0  0999 V2000
   13.1533   -5.2399   21.0682 C   0  0  0  0  0  0  0  0  0  0  0  0
   10.4729   -4.0295   17.6135 C   0  0  0  0  0  0  0  0  0  0  0  0
   10.4789   -4.3641   20.9564 C   0  0  0  0  0  0  0  0  0  0  0  0
    8.7421   -5.1412   16.3650 C   0  0  0  0  0  0  0  0  0  0  0  0
   11.4353   -2.9204   17.8044 C   0  0  0  0  0  0  0  0  0  0  0  0
   11.1529   -4.3028   22.1277 C   0  0  0  0  0  0  0  0  0  0  0  0
   11.1290   -4.8502   19.8052 C   0  0  0  0  0  0  0  0  0  0  0  0
   12.4329   -4.2159   24.4224 C   0  0  0  0  0  0  0  0  0  0  0  0
    3.4740   -9.0387   16.5022 C   0  0  0  0  0  0  0  0  0  0  0  0
    6.8384   -7.9290   17.5282 N   0  0  0  0  0  0  0  0  0  0  0  0
    9.4126   -5.9853   18.4899 C   0  0  0  0  0  0  0  0  0  0  0  0
    4.2064  -10.3242   18.3302 C   0  0  0  0  0  0  0  0  0  0  0  0
    9.6599   -4.1551   16.4796 N   0  0  0  0  0  0  0  0  0  0  0  0
    7.0644   -6.4612   15.7375 N   0  0  0  0  0  0  0  0  0  0  0  0
    5.3549   -9.6322   18.3190 C   0  0  0  0  0  0  0  0  0  0  0  0
   10.3704   -4.9638   18.6510 C   0  0  0  0  0  0  0  0  0  0  0  0
    5.5935   -8.6419   17.4234 C   0  0  0  0  0  0  0  0  0  0  0  0
   13.0726   -4.6648   23.3394 O   0  0  0  0  0  0  0  0  0  0  0  0
    8.5955   -6.0705   17.3996 C   0  0  0  0  0  0  0  0  0  0  0  0
    4.6223   -8.3832   16.5030 C   0  0  0  0  0  0  0  0  0  0  0  0
   12.4690   -5.2624   19.9024 C   0  0  0  0  0  0  0  0  0  0  0  0
    3.2548   -9.9919   17.4189 C   0  0  0  0  0  0  0  0  0  0  0  0
   12.4767   -4.7393   22.1790 C   0  0  0  0  0  0  0  0  0  0  0  0
    7.8593   -5.3772   15.3569 N   0  0  0  0  0  0  0  0  0  0  0  0
    7.4412   -6.9038   16.9283 C   0  0  0  0  0  0  0  0  0  0  0  0
  1 21  4  0
  1 23  4  0
  2  5  1  0
  2 13  4  0
  2 16  4  0
  3  6  4  0
  3  7  4  0
  4 13  4  0
  4 19  4  0
  4 24  4  0
  6 23  4  0
  7 16  1  0
  7 21  4  0
  8 18  1  0
  9 20  4  0
  9 22  4  0
 10 17  1  0
 10 25  1  0
 11 16  4  0
 11 19  4  0
 12 15  4  0
 12 22  4  0
 14 24  4  0
 14 25  4  0
 15 17  4  0
 17 20  4  0
 18 23  1  0
 19 25  4  0
M  END
$$$$

 Created by Python create_sdf_string function

 25 28  0  0  0  0  0  0  0  0999 V2000
   13.1533   -5.2399   21.0682 C   0  0  0  0  0  0  0  0  0  0  0  0
   10.4729   -4.0295   17.6135 C   0  0  0  0  0  0  0  0  0  0  0  0
   10.4789   -4.3641   20.9564 C   0  0  0  0  0  0  0  0  0  0  0  0
    8.7421   -5.1412   16.3650 C   0  0  0  0  0  0  0  0  0  0  0  0
   11.4353   -2.9204   17.8044 C   0  0  0  0  0  0  0  0  0  0  0  0
   11.1529   -4.3028   22.1277 C   0  0  0  0  0  0  0  0  0  0  0  0
   11.1290   -4.8502   19.8052 C   0  0  0  0  0  0  0  0  0  0  0  0
   12.4329   -4.2159   24.4224 C   0  0  0  0  0  0  0  0  0  0  0  0
    3.4740   -9.0387   16.5022 C   0  0  0  0  0  0  0  0  0  0  0  0
    6.8384   -7.9290   17.5282 N   0  0  0  0  0  0  0  0  0  0  0  0
    9.4126   -5.9853   18.4899 C   0  0  0  0  0  0  0  0  0  0  0  0
    4.2064  -10.3242   18.3302 C   0  0  0  0  0  0  0  0  0  0  0  0
    9.6599   -4.1551   16.4796 N   0  0  0  0  0  0  0  0  0  0  0  0
    7.0644   -6.4612   15.7375 N   0  0  0  0  0  0  0  0  0  0  0  0
    5.3549   -9.6322   18.3190 C   0  0  0  0  0  0  0  0  0  0  0  0
   10.3704   -4.9638   18.6510 C   0  0  0  0  0  0  0  0  0  0  0  0
    5.5935   -8.6419   17.4234 C   0  0  0  0  0  0  0  0  0  0  0  0
   13.0726   -4.6648   23.3394 O   0  0  0  0  0  0  0  0  0  0  0  0
    8.5955   -6.0705   17.3996 C   0  0  0  0  0  0  0  0  0  0  0  0
    4.6223   -8.3832   16.5030 C   0  0  0  0  0  0  0  0  0  0  0  0
   12.4690   -5.2624   19.9024 C   0  0  0  0  0  0  0  0  0  0  0  0
    3.2548   -9.9919   17.4189 C   0  0  0  0  0  0  0  0  0  0  0  0
   12.4767   -4.7393   22.1790 C   0  0  0  0  0  0  0  0  0  0  0  0
    7.8593   -5.3772   15.3569 N   0  0  0  0  0  0  0  0  0  0  0  0
    7.4412   -6.9038   16.9283 C   0  0  0  0  0  0  0  0  0  0  0  0
  1 21  4  0
  1 23  4  0
  2  5  1  0
  2 13  4  0
  2 16  4  0
  3  6  4  0
  3  7  4  0
  4 13  4  0
  4 19  4  0
  4 24  4  0
  6 23  4  0
  7 16  1  0
  7 21  4  0
  8 18  1  0
  9 20  4  0
  9 22  4  0
 10 17  1  0
 10 25  1  0
 11 16  4  0
 11 19  4  0
 12 15  4  0
 12 22  4  0
 14 24  4  0
 14 25  4  0
 15 17  4  0
 17 20  4  0
 18 23  1  0
 19 25  4  0
M  END
$$$$

 Created by Python create_sdf_string function

 25 28  0  0  0  0  0  0  0  0999 V2000
   13.1533   -5.2399   21.0682 C   0  0  0  0  0  0  0  0  0  0  0  0
   10.4729   -4.0295   17.6135 C   0  0  0  0  0  0  0  0  0  0  0  0
   10.4789   -4.3641   20.9564 C   0  0  0  0  0  0  0  0  0  0  0  0
    8.7421   -5.1412   16.3650 C   0  0  0  0  0  0  0  0  0  0  0  0
   11.4353   -2.9204   17.8044 C   0  0  0  0  0  0  0  0  0  0  0  0
   11.1529   -4.3028   22.1277 C   0  0  0  0  0  0  0  0  0  0  0  0
   11.1290   -4.8502   19.8052 C   0  0  0  0  0  0  0  0  0  0  0  0
   12.4329   -4.2159   24.4224 C   0  0  0  0  0  0  0  0  0  0  0  0
    3.4740   -9.0387   16.5022 C   0  0  0  0  0  0  0  0  0  0  0  0
    6.8384   -7.9290   17.5282 N   0  0  0  0  0  0  0  0  0  0  0  0
    9.4126   -5.9853   18.4899 C   0  0  0  0  0  0  0  0  0  0  0  0
    4.2064  -10.3242   18.3302 C   0  0  0  0  0  0  0  0  0  0  0  0
    9.6599   -4.1551   16.4796 N   0  0  0  0  0  0  0  0  0  0  0  0
    7.0644   -6.4612   15.7375 N   0  0  0  0  0  0  0  0  0  0  0  0
    5.3549   -9.6322   18.3190 C   0  0  0  0  0  0  0  0  0  0  0  0
   10.3704   -4.9638   18.6510 C   0  0  0  0  0  0  0  0  0  0  0  0
    5.5935   -8.6419   17.4234 C   0  0  0  0  0  0  0  0  0  0  0  0
   13.0726   -4.6648   23.3394 O   0  0  0  0  0  0  0  0  0  0  0  0
    8.5955   -6.0705   17.3996 C   0  0  0  0  0  0  0  0  0  0  0  0
    4.6223   -8.3832   16.5030 C   0  0  0  0  0  0  0  0  0  0  0  0
   12.4690   -5.2624   19.9024 C   0  0  0  0  0  0  0  0  0  0  0  0
    3.2548   -9.9919   17.4189 C   0  0  0  0  0  0  0  0  0  0  0  0
   12.4767   -4.7393   22.1790 C   0  0  0  0  0  0  0  0  0  0  0  0
    7.8593   -5.3772   15.3569 N   0  0  0  0  0  0  0  0  0  0  0  0
    7.4412   -6.9038   16.9283 C   0  0  0  0  0  0  0  0  0  0  0  0
  1 21  4  0
  1 23  4  0
  2  5  1  0
  2 13  4  0
  2 16  4  0
  3  6  4  0
  3  7  4  0
  4 13  4  0
  4 19  4  0
  4 24  4  0
  6 23  4  0
  7 16  1  0
  7 21  4  0
  8 18  1  0
  9 20  4  0
  9 22  4  0
 10 17  1  0
 10 25  1  0
 11 16  4  0
 11 19  4  0
 12 15  4  0
 12 22  4  0
 14 24  4  0
 14 25  4  0
 15 17  4  0
 17 20  4  0
 18 23  1  0
 19 25  4  0
M  END
$$$$

 Created by Python create_sdf_string function

 25 28  0  0  0  0  0  0  0  0999 V2000
   13.1533   -5.2399   21.0682 C   0  0  0  0  0  0  0  0  0  0  0  0
   10.4729   -4.0295   17.6135 C   0  0  0  0  0  0  0  0  0  0  0  0
   10.4789   -4.3641   20.9564 C   0  0  0  0  0  0  0  0  0  0  0  0
    8.7421   -5.1412   16.3650 C   0  0  0  0  0  0  0  0  0  0  0  0
   11.4353   -2.9204   17.8044 C   0  0  0  0  0  0  0  0  0  0  0  0
   11.1529   -4.3028   22.1277 C   0  0  0  0  0  0  0  0  0  0  0  0
   11.1290   -4.8502   19.8052 C   0  0  0  0  0  0  0  0  0  0  0  0
   12.4329   -4.2159   24.4224 C   0  0  0  0  0  0  0  0  0  0  0  0
    3.4740   -9.0387   16.5022 C   0  0  0  0  0  0  0  0  0  0  0  0
    6.8384   -7.9290   17.5282 N   0  0  0  0  0  0  0  0  0  0  0  0
    9.4126   -5.9853   18.4899 C   0  0  0  0  0  0  0  0  0  0  0  0
    4.2064  -10.3242   18.3302 C   0  0  0  0  0  0  0  0  0  0  0  0
    9.6599   -4.1551   16.4796 N   0  0  0  0  0  0  0  0  0  0  0  0
    7.0644   -6.4612   15.7375 N   0  0  0  0  0  0  0  0  0  0  0  0
    5.3549   -9.6322   18.3190 C   0  0  0  0  0  0  0  0  0  0  0  0
   10.3704   -4.9638   18.6510 C   0  0  0  0  0  0  0  0  0  0  0  0
    5.5935   -8.6419   17.4234 C   0  0  0  0  0  0  0  0  0  0  0  0
   13.0726   -4.6648   23.3394 O   0  0  0  0  0  0  0  0  0  0  0  0
    8.5955   -6.0705   17.3996 C   0  0  0  0  0  0  0  0  0  0  0  0
    4.6223   -8.3832   16.5030 C   0  0  0  0  0  0  0  0  0  0  0  0
   12.4690   -5.2624   19.9024 C   0  0  0  0  0  0  0  0  0  0  0  0
    3.2548   -9.9919   17.4189 C   0  0  0  0  0  0  0  0  0  0  0  0
   12.4767   -4.7393   22.1790 C   0  0  0  0  0  0  0  0  0  0  0  0
    7.8593   -5.3772   15.3569 N   0  0  0  0  0  0  0  0  0  0  0  0
    7.4412   -6.9038   16.9283 C   0  0  0  0  0  0  0  0  0  0  0  0
  1 21  4  0
  1 23  4  0
  2  5  1  0
  2 13  4  0
  2 16  4  0
  3  6  4  0
  3  7  4  0
  4 13  4  0
  4 19  4  0
  4 24  4  0
  6 23  4  0
  7 16  1  0
  7 21  4  0
  8 18  1  0
  9 20  4  0
  9 22  4  0
 10 17  1  0
 10 25  1  0
 11 16  4  0
 11 19  4  0
 12 15  4  0
 12 22  4  0
 14 24  4  0
 14 25  4  0
 15 17  4  0
 17 20  4  0
 18 23  1  0
 19 25  4  0
M  END
$$$$

 Created by Python create_sdf_string function

 25 28  0  0  0  0  0  0  0  0999 V2000
   13.1533   -5.2399   21.0682 C   0  0  0  0  0  0  0  0  0  0  0  0
   10.4729   -4.0295   17.6135 C   0  0  0  0  0  0  0  0  0  0  0  0
   10.4789   -4.3641   20.9564 C   0  0  0  0  0  0  0  0  0  0  0  0
    8.7421   -5.1412   16.3650 C   0  0  0  0  0  0  0  0  0  0  0  0
   11.4353   -2.9204   17.8044 C   0  0  0  0  0  0  0  0  0  0  0  0
   11.1529   -4.3028   22.1277 C   0  0  0  0  0  0  0  0  0  0  0  0
   11.1290   -4.8502   19.8052 C   0  0  0  0  0  0  0  0  0  0  0  0
   12.4329   -4.2159   24.4224 C   0  0  0  0  0  0  0  0  0  0  0  0
    3.4740   -9.0387   16.5022 C   0  0  0  0  0  0  0  0  0  0  0  0
    6.8384   -7.9290   17.5282 N   0  0  0  0  0  0  0  0  0  0  0  0
    9.4126   -5.9853   18.4899 C   0  0  0  0  0  0  0  0  0  0  0  0
    4.2064  -10.3242   18.3302 C   0  0  0  0  0  0  0  0  0  0  0  0
    9.6599   -4.1551   16.4796 N   0  0  0  0  0  0  0  0  0  0  0  0
    7.0644   -6.4612   15.7375 N   0  0  0  0  0  0  0  0  0  0  0  0
    5.3549   -9.6322   18.3190 C   0  0  0  0  0  0  0  0  0  0  0  0
   10.3704   -4.9638   18.6510 C   0  0  0  0  0  0  0  0  0  0  0  0
    5.5935   -8.6419   17.4234 C   0  0  0  0  0  0  0  0  0  0  0  0
   13.0726   -4.6648   23.3394 O   0  0  0  0  0  0  0  0  0  0  0  0
    8.5955   -6.0705   17.3996 C   0  0  0  0  0  0  0  0  0  0  0  0
    4.6223   -8.3832   16.5030 C   0  0  0  0  0  0  0  0  0  0  0  0
   12.4690   -5.2624   19.9024 C   0  0  0  0  0  0  0  0  0  0  0  0
    3.2548   -9.9919   17.4189 C   0  0  0  0  0  0  0  0  0  0  0  0
   12.4767   -4.7393   22.1790 C   0  0  0  0  0  0  0  0  0  0  0  0
    7.8593   -5.3772   15.3569 N   0  0  0  0  0  0  0  0  0  0  0  0
    7.4412   -6.9038   16.9283 C   0  0  0  0  0  0  0  0  0  0  0  0
  1 21  4  0
  1 23  4  0
  2  5  1  0
  2 13  4  0
  2 16  4  0
  3  6  4  0
  3  7  4  0
  4 13  4  0
  4 19  4  0
  4 24  4  0
  6 23  4  0
  7 16  1  0
  7 21  4  0
  8 18  1  0
  9 20  4  0
  9 22  4  0
 10 17  1  0
 10 25  1  0
 11 16  4  0
 11 19  4  0
 12 15  4  0
 12 22  4  0
 14 24  4  0
 14 25  4  0
 15 17  4  0
 17 20  4  0
 18 23  1  0
 19 25  4  0
M  END
$$$$

 Created by Python create_sdf_string function

 25 28  0  0  0  0  0  0  0  0999 V2000
   13.1533   -5.2399   21.0682 C   0  0  0  0  0  0  0  0  0  0  0  0
   10.4729   -4.0295   17.6135 C   0  0  0  0  0  0  0  0  0  0  0  0
   10.4789   -4.3641   20.9564 C   0  0  0  0  0  0  0  0  0  0  0  0
    8.7421   -5.1412   16.3650 C   0  0  0  0  0  0  0  0  0  0  0  0
   11.4353   -2.9204   17.8044 C   0  0  0  0  0  0  0  0  0  0  0  0
   11.1529   -4.3028   22.1277 C   0  0  0  0  0  0  0  0  0  0  0  0
   11.1290   -4.8502   19.8052 C   0  0  0  0  0  0  0  0  0  0  0  0
   12.4329   -4.2159   24.4224 C   0  0  0  0  0  0  0  0  0  0  0  0
    3.4740   -9.0387   16.5022 C   0  0  0  0  0  0  0  0  0  0  0  0
    6.8384   -7.9290   17.5282 N   0  0  0  0  0  0  0  0  0  0  0  0
    9.4126   -5.9853   18.4899 C   0  0  0  0  0  0  0  0  0  0  0  0
    4.2064  -10.3242   18.3302 C   0  0  0  0  0  0  0  0  0  0  0  0
    9.6599   -4.1551   16.4796 N   0  0  0  0  0  0  0  0  0  0  0  0
    7.0644   -6.4612   15.7375 N   0  0  0  0  0  0  0  0  0  0  0  0
    5.3549   -9.6322   18.3190 C   0  0  0  0  0  0  0  0  0  0  0  0
   10.3704   -4.9638   18.6510 C   0  0  0  0  0  0  0  0  0  0  0  0
    5.5935   -8.6419   17.4234 C   0  0  0  0  0  0  0  0  0  0  0  0
   13.0726   -4.6648   23.3394 O   0  0  0  0  0  0  0  0  0  0  0  0
    8.5955   -6.0705   17.3996 C   0  0  0  0  0  0  0  0  0  0  0  0
    4.6223   -8.3832   16.5030 C   0  0  0  0  0  0  0  0  0  0  0  0
   12.4690   -5.2624   19.9024 C   0  0  0  0  0  0  0  0  0  0  0  0
    3.2548   -9.9919   17.4189 C   0  0  0  0  0  0  0  0  0  0  0  0
   12.4767   -4.7393   22.1790 C   0  0  0  0  0  0  0  0  0  0  0  0
    7.8593   -5.3772   15.3569 N   0  0  0  0  0  0  0  0  0  0  0  0
    7.4412   -6.9038   16.9283 C   0  0  0  0  0  0  0  0  0  0  0  0
  1 21  4  0
  1 23  4  0
  2  5  1  0
  2 13  4  0
  2 16  4  0
  3  6  4  0
  3  7  4  0
  4 13  4  0
  4 19  4  0
  4 24  4  0
  6 23  4  0
  7 16  1  0
  7 21  4  0
  8 18  1  0
  9 20  4  0
  9 22  4  0
 10 17  1  0
 10 25  1  0
 11 16  4  0
 11 19  4  0
 12 15  4  0
 12 22  4  0
 14 24  4  0
 14 25  4  0
 15 17  4  0
 17 20  4  0
 18 23  1  0
 19 25  4  0
M  END
$$$$

 Created by Python create_sdf_string function

 25 28  0  0  0  0  0  0  0  0999 V2000
   13.1533   -5.2399   21.0682 C   0  0  0  0  0  0  0  0  0  0  0  0
   10.4729   -4.0295   17.6135 C   0  0  0  0  0  0  0  0  0  0  0  0
   10.4789   -4.3641   20.9564 C   0  0  0  0  0  0  0  0  0  0  0  0
    8.7421   -5.1412   16.3650 C   0  0  0  0  0  0  0  0  0  0  0  0
   11.4353   -2.9204   17.8044 C   0  0  0  0  0  0  0  0  0  0  0  0
   11.1529   -4.3028   22.1277 C   0  0  0  0  0  0  0  0  0  0  0  0
   11.1290   -4.8502   19.8052 C   0  0  0  0  0  0  0  0  0  0  0  0
   12.4329   -4.2159   24.4224 C   0  0  0  0  0  0  0  0  0  0  0  0
    3.4740   -9.0387   16.5022 C   0  0  0  0  0  0  0  0  0  0  0  0
    6.8384   -7.9290   17.5282 N   0  0  0  0  0  0  0  0  0  0  0  0
    9.4126   -5.9853   18.4899 C   0  0  0  0  0  0  0  0  0  0  0  0
    4.2064  -10.3242   18.3302 C   0  0  0  0  0  0  0  0  0  0  0  0
    9.6599   -4.1551   16.4796 N   0  0  0  0  0  0  0  0  0  0  0  0
    7.0644   -6.4612   15.7375 N   0  0  0  0  0  0  0  0  0  0  0  0
    5.3549   -9.6322   18.3190 C   0  0  0  0  0  0  0  0  0  0  0  0
   10.3704   -4.9638   18.6510 C   0  0  0  0  0  0  0  0  0  0  0  0
    5.5935   -8.6419   17.4234 C   0  0  0  0  0  0  0  0  0  0  0  0
   13.0726   -4.6648   23.3394 O   0  0  0  0  0  0  0  0  0  0  0  0
    8.5955   -6.0705   17.3996 C   0  0  0  0  0  0  0  0  0  0  0  0
    4.6223   -8.3832   16.5030 C   0  0  0  0  0  0  0  0  0  0  0  0
   12.4690   -5.2624   19.9024 C   0  0  0  0  0  0  0  0  0  0  0  0
    3.2548   -9.9919   17.4189 C   0  0  0  0  0  0  0  0  0  0  0  0
   12.4767   -4.7393   22.1790 C   0  0  0  0  0  0  0  0  0  0  0  0
    7.8593   -5.3772   15.3569 N   0  0  0  0  0  0  0  0  0  0  0  0
    7.4412   -6.9038   16.9283 C   0  0  0  0  0  0  0  0  0  0  0  0
  1 21  4  0
  1 23  4  0
  2  5  1  0
  2 13  4  0
  2 16  4  0
  3  6  4  0
  3  7  4  0
  4 13  4  0
  4 19  4  0
  4 24  4  0
  6 23  4  0
  7 16  1  0
  7 21  4  0
  8 18  1  0
  9 20  4  0
  9 22  4  0
 10 17  1  0
 10 25  1  0
 11 16  4  0
 11 19  4  0
 12 15  4  0
 12 22  4  0
 14 24  4  0
 14 25  4  0
 15 17  4  0
 17 20  4  0
 18 23  1  0
 19 25  4  0
M  END
$$$$

 Created by Python create_sdf_string function

 25 28  0  0  0  0  0  0  0  0999 V2000
   13.1533   -5.2399   21.0682 C   0  0  0  0  0  0  0  0  0  0  0  0
   10.4729   -4.0295   17.6135 C   0  0  0  0  0  0  0  0  0  0  0  0
   10.4789   -4.3641   20.9564 C   0  0  0  0  0  0  0  0  0  0  0  0
    8.7421   -5.1412   16.3650 C   0  0  0  0  0  0  0  0  0  0  0  0
   11.4353   -2.9204   17.8044 C   0  0  0  0  0  0  0  0  0  0  0  0
   11.1529   -4.3028   22.1277 C   0  0  0  0  0  0  0  0  0  0  0  0
   11.1290   -4.8502   19.8052 C   0  0  0  0  0  0  0  0  0  0  0  0
   12.4329   -4.2159   24.4224 C   0  0  0  0  0  0  0  0  0  0  0  0
    3.4740   -9.0387   16.5022 C   0  0  0  0  0  0  0  0  0  0  0  0
    6.8384   -7.9290   17.5282 N   0  0  0  0  0  0  0  0  0  0  0  0
    9.4126   -5.9853   18.4899 C   0  0  0  0  0  0  0  0  0  0  0  0
    4.2064  -10.3242   18.3302 C   0  0  0  0  0  0  0  0  0  0  0  0
    9.6599   -4.1551   16.4796 N   0  0  0  0  0  0  0  0  0  0  0  0
    7.0644   -6.4612   15.7375 N   0  0  0  0  0  0  0  0  0  0  0  0
    5.3549   -9.6322   18.3190 C   0  0  0  0  0  0  0  0  0  0  0  0
   10.3704   -4.9638   18.6510 C   0  0  0  0  0  0  0  0  0  0  0  0
    5.5935   -8.6419   17.4234 C   0  0  0  0  0  0  0  0  0  0  0  0
   13.0726   -4.6648   23.3394 O   0  0  0  0  0  0  0  0  0  0  0  0
    8.5955   -6.0705   17.3996 C   0  0  0  0  0  0  0  0  0  0  0  0
    4.6223   -8.3832   16.5030 C   0  0  0  0  0  0  0  0  0  0  0  0
   12.4690   -5.2624   19.9024 C   0  0  0  0  0  0  0  0  0  0  0  0
    3.2548   -9.9919   17.4189 C   0  0  0  0  0  0  0  0  0  0  0  0
   12.4767   -4.7393   22.1790 C   0  0  0  0  0  0  0  0  0  0  0  0
    7.8593   -5.3772   15.3569 N   0  0  0  0  0  0  0  0  0  0  0  0
    7.4412   -6.9038   16.9283 C   0  0  0  0  0  0  0  0  0  0  0  0
  1 21  4  0
  1 23  4  0
  2  5  1  0
  2 13  4  0
  2 16  4  0
  3  6  4  0
  3  7  4  0
  4 13  4  0
  4 19  4  0
  4 24  4  0
  6 23  4  0
  7 16  1  0
  7 21  4  0
  8 18  1  0
  9 20  4  0
  9 22  4  0
 10 17  1  0
 10 25  1  0
 11 16  4  0
 11 19  4  0
 12 15  4  0
 12 22  4  0
 14 24  4  0
 14 25  4  0
 15 17  4  0
 17 20  4  0
 18 23  1  0
 19 25  4  0
M  END
$$$$

 Created by Python create_sdf_string function

 25 28  0  0  0  0  0  0  0  0999 V2000
   13.1533   -5.2399   21.0682 C   0  0  0  0  0  0  0  0  0  0  0  0
   10.4729   -4.0295   17.6135 C   0  0  0  0  0  0  0  0  0  0  0  0
   10.4789   -4.3641   20.9564 C   0  0  0  0  0  0  0  0  0  0  0  0
    8.7421   -5.1412   16.3650 C   0  0  0  0  0  0  0  0  0  0  0  0
   11.4353   -2.9204   17.8044 C   0  0  0  0  0  0  0  0  0  0  0  0
   11.1529   -4.3028   22.1277 C   0  0  0  0  0  0  0  0  0  0  0  0
   11.1290   -4.8502   19.8052 C   0  0  0  0  0  0  0  0  0  0  0  0
   12.4329   -4.2159   24.4224 C   0  0  0  0  0  0  0  0  0  0  0  0
    3.4740   -9.0387   16.5022 C   0  0  0  0  0  0  0  0  0  0  0  0
    6.8384   -7.9290   17.5282 N   0  0  0  0  0  0  0  0  0  0  0  0
    9.4126   -5.9853   18.4899 C   0  0  0  0  0  0  0  0  0  0  0  0
    4.2064  -10.3242   18.3302 C   0  0  0  0  0  0  0  0  0  0  0  0
    9.6599   -4.1551   16.4796 N   0  0  0  0  0  0  0  0  0  0  0  0
    7.0644   -6.4612   15.7375 N   0  0  0  0  0  0  0  0  0  0  0  0
    5.3549   -9.6322   18.3190 C   0  0  0  0  0  0  0  0  0  0  0  0
   10.3704   -4.9638   18.6510 C   0  0  0  0  0  0  0  0  0  0  0  0
    5.5935   -8.6419   17.4234 C   0  0  0  0  0  0  0  0  0  0  0  0
   13.0726   -4.6648   23.3394 O   0  0  0  0  0  0  0  0  0  0  0  0
    8.5955   -6.0705   17.3996 C   0  0  0  0  0  0  0  0  0  0  0  0
    4.6223   -8.3832   16.5030 C   0  0  0  0  0  0  0  0  0  0  0  0
   12.4690   -5.2624   19.9024 C   0  0  0  0  0  0  0  0  0  0  0  0
    3.2548   -9.9919   17.4189 C   0  0  0  0  0  0  0  0  0  0  0  0
   12.4767   -4.7393   22.1790 C   0  0  0  0  0  0  0  0  0  0  0  0
    7.8593   -5.3772   15.3569 N   0  0  0  0  0  0  0  0  0  0  0  0
    7.4412   -6.9038   16.9283 C   0  0  0  0  0  0  0  0  0  0  0  0
  1 21  4  0
  1 23  4  0
  2  5  1  0
  2 13  4  0
  2 16  4  0
  3  6  4  0
  3  7  4  0
  4 13  4  0
  4 19  4  0
  4 24  4  0
  6 23  4  0
  7 16  1  0
  7 21  4  0
  8 18  1  0
  9 20  4  0
  9 22  4  0
 10 17  1  0
 10 25  1  0
 11 16  4  0
 11 19  4  0
 12 15  4  0
 12 22  4  0
 14 24  4  0
 14 25  4  0
 15 17  4  0
 17 20  4  0
 18 23  1  0
 19 25  4  0
M  END
$$$$

 Created by Python create_sdf_string function

 25 28  0  0  0  0  0  0  0  0999 V2000
   13.1533   -5.2399   21.0682 C   0  0  0  0  0  0  0  0  0  0  0  0
   10.4729   -4.0295   17.6135 C   0  0  0  0  0  0  0  0  0  0  0  0
   10.4789   -4.3641   20.9564 C   0  0  0  0  0  0  0  0  0  0  0  0
    8.7421   -5.1412   16.3650 C   0  0  0  0  0  0  0  0  0  0  0  0
   11.4353   -2.9204   17.8044 C   0  0  0  0  0  0  0  0  0  0  0  0
   11.1529   -4.3028   22.1277 C   0  0  0  0  0  0  0  0  0  0  0  0
   11.1290   -4.8502   19.8052 C   0  0  0  0  0  0  0  0  0  0  0  0
   12.4329   -4.2159   24.4224 C   0  0  0  0  0  0  0  0  0  0  0  0
    3.4740   -9.0387   16.5022 C   0  0  0  0  0  0  0  0  0  0  0  0
    6.8384   -7.9290   17.5282 N   0  0  0  0  0  0  0  0  0  0  0  0
    9.4126   -5.9853   18.4899 C   0  0  0  0  0  0  0  0  0  0  0  0
    4.2064  -10.3242   18.3302 C   0  0  0  0  0  0  0  0  0  0  0  0
    9.6599   -4.1551   16.4796 N   0  0  0  0  0  0  0  0  0  0  0  0
    7.0644   -6.4612   15.7375 N   0  0  0  0  0  0  0  0  0  0  0  0
    5.3549   -9.6322   18.3190 C   0  0  0  0  0  0  0  0  0  0  0  0
   10.3704   -4.9638   18.6510 C   0  0  0  0  0  0  0  0  0  0  0  0
    5.5935   -8.6419   17.4234 C   0  0  0  0  0  0  0  0  0  0  0  0
   13.0726   -4.6648   23.3394 O   0  0  0  0  0  0  0  0  0  0  0  0
    8.5955   -6.0705   17.3996 C   0  0  0  0  0  0  0  0  0  0  0  0
    4.6223   -8.3832   16.5030 C   0  0  0  0  0  0  0  0  0  0  0  0
   12.4690   -5.2624   19.9024 C   0  0  0  0  0  0  0  0  0  0  0  0
    3.2548   -9.9919   17.4189 C   0  0  0  0  0  0  0  0  0  0  0  0
   12.4767   -4.7393   22.1790 C   0  0  0  0  0  0  0  0  0  0  0  0
    7.8593   -5.3772   15.3569 N   0  0  0  0  0  0  0  0  0  0  0  0
    7.4412   -6.9038   16.9283 C   0  0  0  0  0  0  0  0  0  0  0  0
  1 21  4  0
  1 23  4  0
  2  5  1  0
  2 13  4  0
  2 16  4  0
  3  6  4  0
  3  7  4  0
  4 13  4  0
  4 19  4  0
  4 24  4  0
  6 23  4  0
  7 16  1  0
  7 21  4  0
  8 18  1  0
  9 20  4  0
  9 22  4  0
 10 17  1  0
 10 25  1  0
 11 16  4  0
 11 19  4  0
 12 15  4  0
 12 22  4  0
 14 24  4  0
 14 25  4  0
 15 17  4  0
 17 20  4  0
 18 23  1  0
 19 25  4  0
M  END
$$$$

 Created by Python create_sdf_string function

 25 28  0  0  0  0  0  0  0  0999 V2000
   13.1533   -5.2399   21.0682 C   0  0  0  0  0  0  0  0  0  0  0  0
   10.4729   -4.0295   17.6135 C   0  0  0  0  0  0  0  0  0  0  0  0
   10.4789   -4.3641   20.9564 C   0  0  0  0  0  0  0  0  0  0  0  0
    8.7421   -5.1412   16.3650 C   0  0  0  0  0  0  0  0  0  0  0  0
   11.4353   -2.9204   17.8044 C   0  0  0  0  0  0  0  0  0  0  0  0
   11.1529   -4.3028   22.1277 C   0  0  0  0  0  0  0  0  0  0  0  0
   11.1290   -4.8502   19.8052 C   0  0  0  0  0  0  0  0  0  0  0  0
   12.4329   -4.2159   24.4224 C   0  0  0  0  0  0  0  0  0  0  0  0
    3.4740   -9.0387   16.5022 C   0  0  0  0  0  0  0  0  0  0  0  0
    6.8384   -7.9290   17.5282 N   0  0  0  0  0  0  0  0  0  0  0  0
    9.4126   -5.9853   18.4899 C   0  0  0  0  0  0  0  0  0  0  0  0
    4.2064  -10.3242   18.3302 C   0  0  0  0  0  0  0  0  0  0  0  0
    9.6599   -4.1551   16.4796 N   0  0  0  0  0  0  0  0  0  0  0  0
    7.0644   -6.4612   15.7375 N   0  0  0  0  0  0  0  0  0  0  0  0
    5.3549   -9.6322   18.3190 C   0  0  0  0  0  0  0  0  0  0  0  0
   10.3704   -4.9638   18.6510 C   0  0  0  0  0  0  0  0  0  0  0  0
    5.5935   -8.6419   17.4234 C   0  0  0  0  0  0  0  0  0  0  0  0
   13.0726   -4.6648   23.3394 O   0  0  0  0  0  0  0  0  0  0  0  0
    8.5955   -6.0705   17.3996 C   0  0  0  0  0  0  0  0  0  0  0  0
    4.6223   -8.3832   16.5030 C   0  0  0  0  0  0  0  0  0  0  0  0
   12.4690   -5.2624   19.9024 C   0  0  0  0  0  0  0  0  0  0  0  0
    3.2548   -9.9919   17.4189 C   0  0  0  0  0  0  0  0  0  0  0  0
   12.4767   -4.7393   22.1790 C   0  0  0  0  0  0  0  0  0  0  0  0
    7.8593   -5.3772   15.3569 N   0  0  0  0  0  0  0  0  0  0  0  0
    7.4412   -6.9038   16.9283 C   0  0  0  0  0  0  0  0  0  0  0  0
  1 21  4  0
  1 23  4  0
  2  5  1  0
  2 13  4  0
  2 16  4  0
  3  6  4  0
  3  7  4  0
  4 13  4  0
  4 19  4  0
  4 24  4  0
  6 23  4  0
  7 16  1  0
  7 21  4  0
  8 18  1  0
  9 20  4  0
  9 22  4  0
 10 17  1  0
 10 25  1  0
 11 16  4  0
 11 19  4  0
 12 15  4  0
 12 22  4  0
 14 24  4  0
 14 25  4  0
 15 17  4  0
 17 20  4  0
 18 23  1  0
 19 25  4  0
M  END
$$$$

 Created by Python create_sdf_string function

 25 28  0  0  0  0  0  0  0  0999 V2000
   13.1533   -5.2399   21.0682 C   0  0  0  0  0  0  0  0  0  0  0  0
   10.4729   -4.0295   17.6135 C   0  0  0  0  0  0  0  0  0  0  0  0
   10.4789   -4.3641   20.9564 C   0  0  0  0  0  0  0  0  0  0  0  0
    8.7421   -5.1412   16.3650 C   0  0  0  0  0  0  0  0  0  0  0  0
   11.4353   -2.9204   17.8044 C   0  0  0  0  0  0  0  0  0  0  0  0
   11.1529   -4.3028   22.1277 C   0  0  0  0  0  0  0  0  0  0  0  0
   11.1290   -4.8502   19.8052 C   0  0  0  0  0  0  0  0  0  0  0  0
   12.4329   -4.2159   24.4224 C   0  0  0  0  0  0  0  0  0  0  0  0
    3.4740   -9.0387   16.5022 C   0  0  0  0  0  0  0  0  0  0  0  0
    6.8384   -7.9290   17.5282 N   0  0  0  0  0  0  0  0  0  0  0  0
    9.4126   -5.9853   18.4899 C   0  0  0  0  0  0  0  0  0  0  0  0
    4.2064  -10.3242   18.3302 C   0  0  0  0  0  0  0  0  0  0  0  0
    9.6599   -4.1551   16.4796 N   0  0  0  0  0  0  0  0  0  0  0  0
    7.0644   -6.4612   15.7375 N   0  0  0  0  0  0  0  0  0  0  0  0
    5.3549   -9.6322   18.3190 C   0  0  0  0  0  0  0  0  0  0  0  0
   10.3704   -4.9638   18.6510 C   0  0  0  0  0  0  0  0  0  0  0  0
    5.5935   -8.6419   17.4234 C   0  0  0  0  0  0  0  0  0  0  0  0
   13.0726   -4.6648   23.3394 O   0  0  0  0  0  0  0  0  0  0  0  0
    8.5955   -6.0705   17.3996 C   0  0  0  0  0  0  0  0  0  0  0  0
    4.6223   -8.3832   16.5030 C   0  0  0  0  0  0  0  0  0  0  0  0
   12.4690   -5.2624   19.9024 C   0  0  0  0  0  0  0  0  0  0  0  0
    3.2548   -9.9919   17.4189 C   0  0  0  0  0  0  0  0  0  0  0  0
   12.4767   -4.7393   22.1790 C   0  0  0  0  0  0  0  0  0  0  0  0
    7.8593   -5.3772   15.3569 N   0  0  0  0  0  0  0  0  0  0  0  0
    7.4412   -6.9038   16.9283 C   0  0  0  0  0  0  0  0  0  0  0  0
  1 21  4  0
  1 23  4  0
  2  5  1  0
  2 13  4  0
  2 16  4  0
  3  6  4  0
  3  7  4  0
  4 13  4  0
  4 19  4  0
  4 24  4  0
  6 23  4  0
  7 16  1  0
  7 21  4  0
  8 18  1  0
  9 20  4  0
  9 22  4  0
 10 17  1  0
 10 25  1  0
 11 16  4  0
 11 19  4  0
 12 15  4  0
 12 22  4  0
 14 24  4  0
 14 25  4  0
 15 17  4  0
 17 20  4  0
 18 23  1  0
 19 25  4  0
M  END
$$$$

 Created by Python create_sdf_string function

 25 28  0  0  0  0  0  0  0  0999 V2000
   13.1533   -5.2399   21.0682 C   0  0  0  0  0  0  0  0  0  0  0  0
   10.4729   -4.0295   17.6135 C   0  0  0  0  0  0  0  0  0  0  0  0
   10.4789   -4.3641   20.9564 C   0  0  0  0  0  0  0  0  0  0  0  0
    8.7421   -5.1412   16.3650 C   0  0  0  0  0  0  0  0  0  0  0  0
   11.4353   -2.9204   17.8044 C   0  0  0  0  0  0  0  0  0  0  0  0
   11.1529   -4.3028   22.1277 C   0  0  0  0  0  0  0  0  0  0  0  0
   11.1290   -4.8502   19.8052 C   0  0  0  0  0  0  0  0  0  0  0  0
   12.4329   -4.2159   24.4224 C   0  0  0  0  0  0  0  0  0  0  0  0
    3.4740   -9.0387   16.5022 C   0  0  0  0  0  0  0  0  0  0  0  0
    6.8384   -7.9290   17.5282 N   0  0  0  0  0  0  0  0  0  0  0  0
    9.4126   -5.9853   18.4899 C   0  0  0  0  0  0  0  0  0  0  0  0
    4.2064  -10.3242   18.3302 C   0  0  0  0  0  0  0  0  0  0  0  0
    9.6599   -4.1551   16.4796 N   0  0  0  0  0  0  0  0  0  0  0  0
    7.0644   -6.4612   15.7375 N   0  0  0  0  0  0  0  0  0  0  0  0
    5.3549   -9.6322   18.3190 C   0  0  0  0  0  0  0  0  0  0  0  0
   10.3704   -4.9638   18.6510 C   0  0  0  0  0  0  0  0  0  0  0  0
    5.5935   -8.6419   17.4234 C   0  0  0  0  0  0  0  0  0  0  0  0
   13.0726   -4.6648   23.3394 O   0  0  0  0  0  0  0  0  0  0  0  0
    8.5955   -6.0705   17.3996 C   0  0  0  0  0  0  0  0  0  0  0  0
    4.6223   -8.3832   16.5030 C   0  0  0  0  0  0  0  0  0  0  0  0
   12.4690   -5.2624   19.9024 C   0  0  0  0  0  0  0  0  0  0  0  0
    3.2548   -9.9919   17.4189 C   0  0  0  0  0  0  0  0  0  0  0  0
   12.4767   -4.7393   22.1790 C   0  0  0  0  0  0  0  0  0  0  0  0
    7.8593   -5.3772   15.3569 N   0  0  0  0  0  0  0  0  0  0  0  0
    7.4412   -6.9038   16.9283 C   0  0  0  0  0  0  0  0  0  0  0  0
  1 21  4  0
  1 23  4  0
  2  5  1  0
  2 13  4  0
  2 16  4  0
  3  6  4  0
  3  7  4  0
  4 13  4  0
  4 19  4  0
  4 24  4  0
  6 23  4  0
  7 16  1  0
  7 21  4  0
  8 18  1  0
  9 20  4  0
  9 22  4  0
 10 17  1  0
 10 25  1  0
 11 16  4  0
 11 19  4  0
 12 15  4  0
 12 22  4  0
 14 24  4  0
 14 25  4  0
 15 17  4  0
 17 20  4  0
 18 23  1  0
 19 25  4  0
M  END
$$$$

 Created by Python create_sdf_string function

 25 28  0  0  0  0  0  0  0  0999 V2000
   13.1533   -5.2399   21.0682 C   0  0  0  0  0  0  0  0  0  0  0  0
   10.4729   -4.0295   17.6135 C   0  0  0  0  0  0  0  0  0  0  0  0
   10.4789   -4.3641   20.9564 C   0  0  0  0  0  0  0  0  0  0  0  0
    8.7421   -5.1412   16.3650 C   0  0  0  0  0  0  0  0  0  0  0  0
   11.4353   -2.9204   17.8044 C   0  0  0  0  0  0  0  0  0  0  0  0
   11.1529   -4.3028   22.1277 C   0  0  0  0  0  0  0  0  0  0  0  0
   11.1290   -4.8502   19.8052 C   0  0  0  0  0  0  0  0  0  0  0  0
   12.4329   -4.2159   24.4224 C   0  0  0  0  0  0  0  0  0  0  0  0
    3.4740   -9.0387   16.5022 C   0  0  0  0  0  0  0  0  0  0  0  0
    6.8384   -7.9290   17.5282 N   0  0  0  0  0  0  0  0  0  0  0  0
    9.4126   -5.9853   18.4899 C   0  0  0  0  0  0  0  0  0  0  0  0
    4.2064  -10.3242   18.3302 C   0  0  0  0  0  0  0  0  0  0  0  0
    9.6599   -4.1551   16.4796 N   0  0  0  0  0  0  0  0  0  0  0  0
    7.0644   -6.4612   15.7375 N   0  0  0  0  0  0  0  0  0  0  0  0
    5.3549   -9.6322   18.3190 C   0  0  0  0  0  0  0  0  0  0  0  0
   10.3704   -4.9638   18.6510 C   0  0  0  0  0  0  0  0  0  0  0  0
    5.5935   -8.6419   17.4234 C   0  0  0  0  0  0  0  0  0  0  0  0
   13.0726   -4.6648   23.3394 O   0  0  0  0  0  0  0  0  0  0  0  0
    8.5955   -6.0705   17.3996 C   0  0  0  0  0  0  0  0  0  0  0  0
    4.6223   -8.3832   16.5030 C   0  0  0  0  0  0  0  0  0  0  0  0
   12.4690   -5.2624   19.9024 C   0  0  0  0  0  0  0  0  0  0  0  0
    3.2548   -9.9919   17.4189 C   0  0  0  0  0  0  0  0  0  0  0  0
   12.4767   -4.7393   22.1790 C   0  0  0  0  0  0  0  0  0  0  0  0
    7.8593   -5.3772   15.3569 N   0  0  0  0  0  0  0  0  0  0  0  0
    7.4412   -6.9038   16.9283 C   0  0  0  0  0  0  0  0  0  0  0  0
  1 21  4  0
  1 23  4  0
  2  5  1  0
  2 13  4  0
  2 16  4  0
  3  6  4  0
  3  7  4  0
  4 13  4  0
  4 19  4  0
  4 24  4  0
  6 23  4  0
  7 16  1  0
  7 21  4  0
  8 18  1  0
  9 20  4  0
  9 22  4  0
 10 17  1  0
 10 25  1  0
 11 16  4  0
 11 19  4  0
 12 15  4  0
 12 22  4  0
 14 24  4  0
 14 25  4  0
 15 17  4  0
 17 20  4  0
 18 23  1  0
 19 25  4  0
M  END
$$$$

 Created by Python create_sdf_string function

 25 28  0  0  0  0  0  0  0  0999 V2000
   13.1533   -5.2399   21.0682 C   0  0  0  0  0  0  0  0  0  0  0  0
   10.4729   -4.0295   17.6135 C   0  0  0  0  0  0  0  0  0  0  0  0
   10.4789   -4.3641   20.9564 C   0  0  0  0  0  0  0  0  0  0  0  0
    8.7421   -5.1412   16.3650 C   0  0  0  0  0  0  0  0  0  0  0  0
   11.4353   -2.9204   17.8044 C   0  0  0  0  0  0  0  0  0  0  0  0
   11.1529   -4.3028   22.1277 C   0  0  0  0  0  0  0  0  0  0  0  0
   11.1290   -4.8502   19.8052 C   0  0  0  0  0  0  0  0  0  0  0  0
   12.4329   -4.2159   24.4224 C   0  0  0  0  0  0  0  0  0  0  0  0
    3.4740   -9.0387   16.5022 C   0  0  0  0  0  0  0  0  0  0  0  0
    6.8384   -7.9290   17.5282 N   0  0  0  0  0  0  0  0  0  0  0  0
    9.4126   -5.9853   18.4899 C   0  0  0  0  0  0  0  0  0  0  0  0
    4.2064  -10.3242   18.3302 C   0  0  0  0  0  0  0  0  0  0  0  0
    9.6599   -4.1551   16.4796 N   0  0  0  0  0  0  0  0  0  0  0  0
    7.0644   -6.4612   15.7375 N   0  0  0  0  0  0  0  0  0  0  0  0
    5.3549   -9.6322   18.3190 C   0  0  0  0  0  0  0  0  0  0  0  0
   10.3704   -4.9638   18.6510 C   0  0  0  0  0  0  0  0  0  0  0  0
    5.5935   -8.6419   17.4234 C   0  0  0  0  0  0  0  0  0  0  0  0
   13.0726   -4.6648   23.3394 O   0  0  0  0  0  0  0  0  0  0  0  0
    8.5955   -6.0705   17.3996 C   0  0  0  0  0  0  0  0  0  0  0  0
    4.6223   -8.3832   16.5030 C   0  0  0  0  0  0  0  0  0  0  0  0
   12.4690   -5.2624   19.9024 C   0  0  0  0  0  0  0  0  0  0  0  0
    3.2548   -9.9919   17.4189 C   0  0  0  0  0  0  0  0  0  0  0  0
   12.4767   -4.7393   22.1790 C   0  0  0  0  0  0  0  0  0  0  0  0
    7.8593   -5.3772   15.3569 N   0  0  0  0  0  0  0  0  0  0  0  0
    7.4412   -6.9038   16.9283 C   0  0  0  0  0  0  0  0  0  0  0  0
  1 21  4  0
  1 23  4  0
  2  5  1  0
  2 13  4  0
  2 16  4  0
  3  6  4  0
  3  7  4  0
  4 13  4  0
  4 19  4  0
  4 24  4  0
  6 23  4  0
  7 16  1  0
  7 21  4  0
  8 18  1  0
  9 20  4  0
  9 22  4  0
 10 17  1  0
 10 25  1  0
 11 16  4  0
 11 19  4  0
 12 15  4  0
 12 22  4  0
 14 24  4  0
 14 25  4  0
 15 17  4  0
 17 20  4  0
 18 23  1  0
 19 25  4  0
M  END
$$$$

 Created by Python create_sdf_string function

 25 28  0  0  0  0  0  0  0  0999 V2000
   13.1533   -5.2399   21.0682 C   0  0  0  0  0  0  0  0  0  0  0  0
   10.4729   -4.0295   17.6135 C   0  0  0  0  0  0  0  0  0  0  0  0
   10.4789   -4.3641   20.9564 C   0  0  0  0  0  0  0  0  0  0  0  0
    8.7421   -5.1412   16.3650 C   0  0  0  0  0  0  0  0  0  0  0  0
   11.4353   -2.9204   17.8044 C   0  0  0  0  0  0  0  0  0  0  0  0
   11.1529   -4.3028   22.1277 C   0  0  0  0  0  0  0  0  0  0  0  0
   11.1290   -4.8502   19.8052 C   0  0  0  0  0  0  0  0  0  0  0  0
   12.4329   -4.2159   24.4224 C   0  0  0  0  0  0  0  0  0  0  0  0
    3.4740   -9.0387   16.5022 C   0  0  0  0  0  0  0  0  0  0  0  0
    6.8384   -7.9290   17.5282 N   0  0  0  0  0  0  0  0  0  0  0  0
    9.4126   -5.9853   18.4899 C   0  0  0  0  0  0  0  0  0  0  0  0
    4.2064  -10.3242   18.3302 C   0  0  0  0  0  0  0  0  0  0  0  0
    9.6599   -4.1551   16.4796 N   0  0  0  0  0  0  0  0  0  0  0  0
    7.0644   -6.4612   15.7375 N   0  0  0  0  0  0  0  0  0  0  0  0
    5.3549   -9.6322   18.3190 C   0  0  0  0  0  0  0  0  0  0  0  0
   10.3704   -4.9638   18.6510 C   0  0  0  0  0  0  0  0  0  0  0  0
    5.5935   -8.6419   17.4234 C   0  0  0  0  0  0  0  0  0  0  0  0
   13.0726   -4.6648   23.3394 O   0  0  0  0  0  0  0  0  0  0  0  0
    8.5955   -6.0705   17.3996 C   0  0  0  0  0  0  0  0  0  0  0  0
    4.6223   -8.3832   16.5030 C   0  0  0  0  0  0  0  0  0  0  0  0
   12.4690   -5.2624   19.9024 C   0  0  0  0  0  0  0  0  0  0  0  0
    3.2548   -9.9919   17.4189 C   0  0  0  0  0  0  0  0  0  0  0  0
   12.4767   -4.7393   22.1790 C   0  0  0  0  0  0  0  0  0  0  0  0
    7.8593   -5.3772   15.3569 N   0  0  0  0  0  0  0  0  0  0  0  0
    7.4412   -6.9038   16.9283 C   0  0  0  0  0  0  0  0  0  0  0  0
  1 21  4  0
  1 23  4  0
  2  5  1  0
  2 13  4  0
  2 16  4  0
  3  6  4  0
  3  7  4  0
  4 13  4  0
  4 19  4  0
  4 24  4  0
  6 23  4  0
  7 16  1  0
  7 21  4  0
  8 18  1  0
  9 20  4  0
  9 22  4  0
 10 17  1  0
 10 25  1  0
 11 16  4  0
 11 19  4  0
 12 15  4  0
 12 22  4  0
 14 24  4  0
 14 25  4  0
 15 17  4  0
 17 20  4  0
 18 23  1  0
 19 25  4  0
M  END
$$$$

 Created by Python create_sdf_string function

 25 28  0  0  0  0  0  0  0  0999 V2000
   13.1533   -5.2399   21.0682 C   0  0  0  0  0  0  0  0  0  0  0  0
   10.4729   -4.0295   17.6135 C   0  0  0  0  0  0  0  0  0  0  0  0
   10.4789   -4.3641   20.9564 C   0  0  0  0  0  0  0  0  0  0  0  0
    8.7421   -5.1412   16.3650 C   0  0  0  0  0  0  0  0  0  0  0  0
   11.4353   -2.9204   17.8044 C   0  0  0  0  0  0  0  0  0  0  0  0
   11.1529   -4.3028   22.1277 C   0  0  0  0  0  0  0  0  0  0  0  0
   11.1290   -4.8502   19.8052 C   0  0  0  0  0  0  0  0  0  0  0  0
   12.4329   -4.2159   24.4224 C   0  0  0  0  0  0  0  0  0  0  0  0
    3.4740   -9.0387   16.5022 C   0  0  0  0  0  0  0  0  0  0  0  0
    6.8384   -7.9290   17.5282 N   0  0  0  0  0  0  0  0  0  0  0  0
    9.4126   -5.9853   18.4899 C   0  0  0  0  0  0  0  0  0  0  0  0
    4.2064  -10.3242   18.3302 C   0  0  0  0  0  0  0  0  0  0  0  0
    9.6599   -4.1551   16.4796 N   0  0  0  0  0  0  0  0  0  0  0  0
    7.0644   -6.4612   15.7375 N   0  0  0  0  0  0  0  0  0  0  0  0
    5.3549   -9.6322   18.3190 C   0  0  0  0  0  0  0  0  0  0  0  0
   10.3704   -4.9638   18.6510 C   0  0  0  0  0  0  0  0  0  0  0  0
    5.5935   -8.6419   17.4234 C   0  0  0  0  0  0  0  0  0  0  0  0
   13.0726   -4.6648   23.3394 O   0  0  0  0  0  0  0  0  0  0  0  0
    8.5955   -6.0705   17.3996 C   0  0  0  0  0  0  0  0  0  0  0  0
    4.6223   -8.3832   16.5030 C   0  0  0  0  0  0  0  0  0  0  0  0
   12.4690   -5.2624   19.9024 C   0  0  0  0  0  0  0  0  0  0  0  0
    3.2548   -9.9919   17.4189 C   0  0  0  0  0  0  0  0  0  0  0  0
   12.4767   -4.7393   22.1790 C   0  0  0  0  0  0  0  0  0  0  0  0
    7.8593   -5.3772   15.3569 N   0  0  0  0  0  0  0  0  0  0  0  0
    7.4412   -6.9038   16.9283 C   0  0  0  0  0  0  0  0  0  0  0  0
  1 21  4  0
  1 23  4  0
  2  5  1  0
  2 13  4  0
  2 16  4  0
  3  6  4  0
  3  7  4  0
  4 13  4  0
  4 19  4  0
  4 24  4  0
  6 23  4  0
  7 16  1  0
  7 21  4  0
  8 18  1  0
  9 20  4  0
  9 22  4  0
 10 17  1  0
 10 25  1  0
 11 16  4  0
 11 19  4  0
 12 15  4  0
 12 22  4  0
 14 24  4  0
 14 25  4  0
 15 17  4  0
 17 20  4  0
 18 23  1  0
 19 25  4  0
M  END
$$$$

 Created by Python create_sdf_string function

 25 28  0  0  0  0  0  0  0  0999 V2000
   13.1533   -5.2399   21.0682 C   0  0  0  0  0  0  0  0  0  0  0  0
   10.4729   -4.0295   17.6135 C   0  0  0  0  0  0  0  0  0  0  0  0
   10.4789   -4.3641   20.9564 C   0  0  0  0  0  0  0  0  0  0  0  0
    8.7421   -5.1412   16.3650 C   0  0  0  0  0  0  0  0  0  0  0  0
   11.4353   -2.9204   17.8044 C   0  0  0  0  0  0  0  0  0  0  0  0
   11.1529   -4.3028   22.1277 C   0  0  0  0  0  0  0  0  0  0  0  0
   11.1290   -4.8502   19.8052 C   0  0  0  0  0  0  0  0  0  0  0  0
   12.4329   -4.2159   24.4224 C   0  0  0  0  0  0  0  0  0  0  0  0
    3.4740   -9.0387   16.5022 C   0  0  0  0  0  0  0  0  0  0  0  0
    6.8384   -7.9290   17.5282 N   0  0  0  0  0  0  0  0  0  0  0  0
    9.4126   -5.9853   18.4899 C   0  0  0  0  0  0  0  0  0  0  0  0
    4.2064  -10.3242   18.3302 C   0  0  0  0  0  0  0  0  0  0  0  0
    9.6599   -4.1551   16.4796 N   0  0  0  0  0  0  0  0  0  0  0  0
    7.0644   -6.4612   15.7375 N   0  0  0  0  0  0  0  0  0  0  0  0
    5.3549   -9.6322   18.3190 C   0  0  0  0  0  0  0  0  0  0  0  0
   10.3704   -4.9638   18.6510 C   0  0  0  0  0  0  0  0  0  0  0  0
    5.5935   -8.6419   17.4234 C   0  0  0  0  0  0  0  0  0  0  0  0
   13.0726   -4.6648   23.3394 O   0  0  0  0  0  0  0  0  0  0  0  0
    8.5955   -6.0705   17.3996 C   0  0  0  0  0  0  0  0  0  0  0  0
    4.6223   -8.3832   16.5030 C   0  0  0  0  0  0  0  0  0  0  0  0
   12.4690   -5.2624   19.9024 C   0  0  0  0  0  0  0  0  0  0  0  0
    3.2548   -9.9919   17.4189 C   0  0  0  0  0  0  0  0  0  0  0  0
   12.4767   -4.7393   22.1790 C   0  0  0  0  0  0  0  0  0  0  0  0
    7.8593   -5.3772   15.3569 N   0  0  0  0  0  0  0  0  0  0  0  0
    7.4412   -6.9038   16.9283 C   0  0  0  0  0  0  0  0  0  0  0  0
  1 21  4  0
  1 23  4  0
  2  5  1  0
  2 13  4  0
  2 16  4  0
  3  6  4  0
  3  7  4  0
  4 13  4  0
  4 19  4  0
  4 24  4  0
  6 23  4  0
  7 16  1  0
  7 21  4  0
  8 18  1  0
  9 20  4  0
  9 22  4  0
 10 17  1  0
 10 25  1  0
 11 16  4  0
 11 19  4  0
 12 15  4  0
 12 22  4  0
 14 24  4  0
 14 25  4  0
 15 17  4  0
 17 20  4  0
 18 23  1  0
 19 25  4  0
M  END
$$$$

 Created by Python create_sdf_string function

 25 28  0  0  0  0  0  0  0  0999 V2000
   13.1533   -5.2399   21.0682 C   0  0  0  0  0  0  0  0  0  0  0  0
   10.4729   -4.0295   17.6135 C   0  0  0  0  0  0  0  0  0  0  0  0
   10.4789   -4.3641   20.9564 C   0  0  0  0  0  0  0  0  0  0  0  0
    8.7421   -5.1412   16.3650 C   0  0  0  0  0  0  0  0  0  0  0  0
   11.4353   -2.9204   17.8044 C   0  0  0  0  0  0  0  0  0  0  0  0
   11.1529   -4.3028   22.1277 C   0  0  0  0  0  0  0  0  0  0  0  0
   11.1290   -4.8502   19.8052 C   0  0  0  0  0  0  0  0  0  0  0  0
   12.4329   -4.2159   24.4224 C   0  0  0  0  0  0  0  0  0  0  0  0
    3.4740   -9.0387   16.5022 C   0  0  0  0  0  0  0  0  0  0  0  0
    6.8384   -7.9290   17.5282 N   0  0  0  0  0  0  0  0  0  0  0  0
    9.4126   -5.9853   18.4899 C   0  0  0  0  0  0  0  0  0  0  0  0
    4.2064  -10.3242   18.3302 C   0  0  0  0  0  0  0  0  0  0  0  0
    9.6599   -4.1551   16.4796 N   0  0  0  0  0  0  0  0  0  0  0  0
    7.0644   -6.4612   15.7375 N   0  0  0  0  0  0  0  0  0  0  0  0
    5.3549   -9.6322   18.3190 C   0  0  0  0  0  0  0  0  0  0  0  0
   10.3704   -4.9638   18.6510 C   0  0  0  0  0  0  0  0  0  0  0  0
    5.5935   -8.6419   17.4234 C   0  0  0  0  0  0  0  0  0  0  0  0
   13.0726   -4.6648   23.3394 O   0  0  0  0  0  0  0  0  0  0  0  0
    8.5955   -6.0705   17.3996 C   0  0  0  0  0  0  0  0  0  0  0  0
    4.6223   -8.3832   16.5030 C   0  0  0  0  0  0  0  0  0  0  0  0
   12.4690   -5.2624   19.9024 C   0  0  0  0  0  0  0  0  0  0  0  0
    3.2548   -9.9919   17.4189 C   0  0  0  0  0  0  0  0  0  0  0  0
   12.4767   -4.7393   22.1790 C   0  0  0  0  0  0  0  0  0  0  0  0
    7.8593   -5.3772   15.3569 N   0  0  0  0  0  0  0  0  0  0  0  0
    7.4412   -6.9038   16.9283 C   0  0  0  0  0  0  0  0  0  0  0  0
  1 21  4  0
  1 23  4  0
  2  5  1  0
  2 13  4  0
  2 16  4  0
  3  6  4  0
  3  7  4  0
  4 13  4  0
  4 19  4  0
  4 24  4  0
  6 23  4  0
  7 16  1  0
  7 21  4  0
  8 18  1  0
  9 20  4  0
  9 22  4  0
 10 17  1  0
 10 25  1  0
 11 16  4  0
 11 19  4  0
 12 15  4  0
 12 22  4  0
 14 24  4  0
 14 25  4  0
 15 17  4  0
 17 20  4  0
 18 23  1  0
 19 25  4  0
M  END
$$$$

 Created by Python create_sdf_string function

 25 28  0  0  0  0  0  0  0  0999 V2000
   13.1533   -5.2399   21.0682 C   0  0  0  0  0  0  0  0  0  0  0  0
   10.4729   -4.0295   17.6135 C   0  0  0  0  0  0  0  0  0  0  0  0
   10.4789   -4.3641   20.9564 C   0  0  0  0  0  0  0  0  0  0  0  0
    8.7421   -5.1412   16.3650 C   0  0  0  0  0  0  0  0  0  0  0  0
   11.4353   -2.9204   17.8044 C   0  0  0  0  0  0  0  0  0  0  0  0
   11.1529   -4.3028   22.1277 C   0  0  0  0  0  0  0  0  0  0  0  0
   11.1290   -4.8502   19.8052 C   0  0  0  0  0  0  0  0  0  0  0  0
   12.4329   -4.2159   24.4224 C   0  0  0  0  0  0  0  0  0  0  0  0
    3.4740   -9.0387   16.5022 C   0  0  0  0  0  0  0  0  0  0  0  0
    6.8384   -7.9290   17.5282 N   0  0  0  0  0  0  0  0  0  0  0  0
    9.4126   -5.9853   18.4899 C   0  0  0  0  0  0  0  0  0  0  0  0
    4.2064  -10.3242   18.3302 C   0  0  0  0  0  0  0  0  0  0  0  0
    9.6599   -4.1551   16.4796 N   0  0  0  0  0  0  0  0  0  0  0  0
    7.0644   -6.4612   15.7375 N   0  0  0  0  0  0  0  0  0  0  0  0
    5.3549   -9.6322   18.3190 C   0  0  0  0  0  0  0  0  0  0  0  0
   10.3704   -4.9638   18.6510 C   0  0  0  0  0  0  0  0  0  0  0  0
    5.5935   -8.6419   17.4234 C   0  0  0  0  0  0  0  0  0  0  0  0
   13.0726   -4.6648   23.3394 O   0  0  0  0  0  0  0  0  0  0  0  0
    8.5955   -6.0705   17.3996 C   0  0  0  0  0  0  0  0  0  0  0  0
    4.6223   -8.3832   16.5030 C   0  0  0  0  0  0  0  0  0  0  0  0
   12.4690   -5.2624   19.9024 C   0  0  0  0  0  0  0  0  0  0  0  0
    3.2548   -9.9919   17.4189 C   0  0  0  0  0  0  0  0  0  0  0  0
   12.4767   -4.7393   22.1790 C   0  0  0  0  0  0  0  0  0  0  0  0
    7.8593   -5.3772   15.3569 N   0  0  0  0  0  0  0  0  0  0  0  0
    7.4412   -6.9038   16.9283 C   0  0  0  0  0  0  0  0  0  0  0  0
  1 21  4  0
  1 23  4  0
  2  5  1  0
  2 13  4  0
  2 16  4  0
  3  6  4  0
  3  7  4  0
  4 13  4  0
  4 19  4  0
  4 24  4  0
  6 23  4  0
  7 16  1  0
  7 21  4  0
  8 18  1  0
  9 20  4  0
  9 22  4  0
 10 17  1  0
 10 25  1  0
 11 16  4  0
 11 19  4  0
 12 15  4  0
 12 22  4  0
 14 24  4  0
 14 25  4  0
 15 17  4  0
 17 20  4  0
 18 23  1  0
 19 25  4  0
M  END
$$$$

 Created by Python create_sdf_string function

 25 28  0  0  0  0  0  0  0  0999 V2000
   13.1533   -5.2399   21.0682 C   0  0  0  0  0  0  0  0  0  0  0  0
   10.4729   -4.0295   17.6135 C   0  0  0  0  0  0  0  0  0  0  0  0
   10.4789   -4.3641   20.9564 C   0  0  0  0  0  0  0  0  0  0  0  0
    8.7421   -5.1412   16.3650 C   0  0  0  0  0  0  0  0  0  0  0  0
   11.4353   -2.9204   17.8044 C   0  0  0  0  0  0  0  0  0  0  0  0
   11.1529   -4.3028   22.1277 C   0  0  0  0  0  0  0  0  0  0  0  0
   11.1290   -4.8502   19.8052 C   0  0  0  0  0  0  0  0  0  0  0  0
   12.4329   -4.2159   24.4224 C   0  0  0  0  0  0  0  0  0  0  0  0
    3.4740   -9.0387   16.5022 C   0  0  0  0  0  0  0  0  0  0  0  0
    6.8384   -7.9290   17.5282 N   0  0  0  0  0  0  0  0  0  0  0  0
    9.4126   -5.9853   18.4899 C   0  0  0  0  0  0  0  0  0  0  0  0
    4.2064  -10.3242   18.3302 C   0  0  0  0  0  0  0  0  0  0  0  0
    9.6599   -4.1551   16.4796 N   0  0  0  0  0  0  0  0  0  0  0  0
    7.0644   -6.4612   15.7375 N   0  0  0  0  0  0  0  0  0  0  0  0
    5.3549   -9.6322   18.3190 C   0  0  0  0  0  0  0  0  0  0  0  0
   10.3704   -4.9638   18.6510 C   0  0  0  0  0  0  0  0  0  0  0  0
    5.5935   -8.6419   17.4234 C   0  0  0  0  0  0  0  0  0  0  0  0
   13.0726   -4.6648   23.3394 O   0  0  0  0  0  0  0  0  0  0  0  0
    8.5955   -6.0705   17.3996 C   0  0  0  0  0  0  0  0  0  0  0  0
    4.6223   -8.3832   16.5030 C   0  0  0  0  0  0  0  0  0  0  0  0
   12.4690   -5.2624   19.9024 C   0  0  0  0  0  0  0  0  0  0  0  0
    3.2548   -9.9919   17.4189 C   0  0  0  0  0  0  0  0  0  0  0  0
   12.4767   -4.7393   22.1790 C   0  0  0  0  0  0  0  0  0  0  0  0
    7.8593   -5.3772   15.3569 N   0  0  0  0  0  0  0  0  0  0  0  0
    7.4412   -6.9038   16.9283 C   0  0  0  0  0  0  0  0  0  0  0  0
  1 21  4  0
  1 23  4  0
  2  5  1  0
  2 13  4  0
  2 16  4  0
  3  6  4  0
  3  7  4  0
  4 13  4  0
  4 19  4  0
  4 24  4  0
  6 23  4  0
  7 16  1  0
  7 21  4  0
  8 18  1  0
  9 20  4  0
  9 22  4  0
 10 17  1  0
 10 25  1  0
 11 16  4  0
 11 19  4  0
 12 15  4  0
 12 22  4  0
 14 24  4  0
 14 25  4  0
 15 17  4  0
 17 20  4  0
 18 23  1  0
 19 25  4  0
M  END
$$$$

 Created by Python create_sdf_string function

 25 28  0  0  0  0  0  0  0  0999 V2000
   13.1533   -5.2399   21.0682 C   0  0  0  0  0  0  0  0  0  0  0  0
   10.4729   -4.0295   17.6135 C   0  0  0  0  0  0  0  0  0  0  0  0
   10.4789   -4.3641   20.9564 C   0  0  0  0  0  0  0  0  0  0  0  0
    8.7421   -5.1412   16.3650 C   0  0  0  0  0  0  0  0  0  0  0  0
   11.4353   -2.9204   17.8044 C   0  0  0  0  0  0  0  0  0  0  0  0
   11.1529   -4.3028   22.1277 C   0  0  0  0  0  0  0  0  0  0  0  0
   11.1290   -4.8502   19.8052 C   0  0  0  0  0  0  0  0  0  0  0  0
   12.4329   -4.2159   24.4224 C   0  0  0  0  0  0  0  0  0  0  0  0
    3.4740   -9.0387   16.5022 C   0  0  0  0  0  0  0  0  0  0  0  0
    6.8384   -7.9290   17.5282 N   0  0  0  0  0  0  0  0  0  0  0  0
    9.4126   -5.9853   18.4899 C   0  0  0  0  0  0  0  0  0  0  0  0
    4.2064  -10.3242   18.3302 C   0  0  0  0  0  0  0  0  0  0  0  0
    9.6599   -4.1551   16.4796 N   0  0  0  0  0  0  0  0  0  0  0  0
    7.0644   -6.4612   15.7375 N   0  0  0  0  0  0  0  0  0  0  0  0
    5.3549   -9.6322   18.3190 C   0  0  0  0  0  0  0  0  0  0  0  0
   10.3704   -4.9638   18.6510 C   0  0  0  0  0  0  0  0  0  0  0  0
    5.5935   -8.6419   17.4234 C   0  0  0  0  0  0  0  0  0  0  0  0
   13.0726   -4.6648   23.3394 O   0  0  0  0  0  0  0  0  0  0  0  0
    8.5955   -6.0705   17.3996 C   0  0  0  0  0  0  0  0  0  0  0  0
    4.6223   -8.3832   16.5030 C   0  0  0  0  0  0  0  0  0  0  0  0
   12.4690   -5.2624   19.9024 C   0  0  0  0  0  0  0  0  0  0  0  0
    3.2548   -9.9919   17.4189 C   0  0  0  0  0  0  0  0  0  0  0  0
   12.4767   -4.7393   22.1790 C   0  0  0  0  0  0  0  0  0  0  0  0
    7.8593   -5.3772   15.3569 N   0  0  0  0  0  0  0  0  0  0  0  0
    7.4412   -6.9038   16.9283 C   0  0  0  0  0  0  0  0  0  0  0  0
  1 21  4  0
  1 23  4  0
  2  5  1  0
  2 13  4  0
  2 16  4  0
  3  6  4  0
  3  7  4  0
  4 13  4  0
  4 19  4  0
  4 24  4  0
  6 23  4  0
  7 16  1  0
  7 21  4  0
  8 18  1  0
  9 20  4  0
  9 22  4  0
 10 17  1  0
 10 25  1  0
 11 16  4  0
 11 19  4  0
 12 15  4  0
 12 22  4  0
 14 24  4  0
 14 25  4  0
 15 17  4  0
 17 20  4  0
 18 23  1  0
 19 25  4  0
M  END
$$$$

 Created by Python create_sdf_string function

 25 28  0  0  0  0  0  0  0  0999 V2000
   13.1533   -5.2399   21.0682 C   0  0  0  0  0  0  0  0  0  0  0  0
   10.4729   -4.0295   17.6135 C   0  0  0  0  0  0  0  0  0  0  0  0
   10.4789   -4.3641   20.9564 C   0  0  0  0  0  0  0  0  0  0  0  0
    8.7421   -5.1412   16.3650 C   0  0  0  0  0  0  0  0  0  0  0  0
   11.4353   -2.9204   17.8044 C   0  0  0  0  0  0  0  0  0  0  0  0
   11.1529   -4.3028   22.1277 C   0  0  0  0  0  0  0  0  0  0  0  0
   11.1290   -4.8502   19.8052 C   0  0  0  0  0  0  0  0  0  0  0  0
   12.4329   -4.2159   24.4224 C   0  0  0  0  0  0  0  0  0  0  0  0
    3.4740   -9.0387   16.5022 C   0  0  0  0  0  0  0  0  0  0  0  0
    6.8384   -7.9290   17.5282 N   0  0  0  0  0  0  0  0  0  0  0  0
    9.4126   -5.9853   18.4899 C   0  0  0  0  0  0  0  0  0  0  0  0
    4.2064  -10.3242   18.3302 C   0  0  0  0  0  0  0  0  0  0  0  0
    9.6599   -4.1551   16.4796 N   0  0  0  0  0  0  0  0  0  0  0  0
    7.0644   -6.4612   15.7375 N   0  0  0  0  0  0  0  0  0  0  0  0
    5.3549   -9.6322   18.3190 C   0  0  0  0  0  0  0  0  0  0  0  0
   10.3704   -4.9638   18.6510 C   0  0  0  0  0  0  0  0  0  0  0  0
    5.5935   -8.6419   17.4234 C   0  0  0  0  0  0  0  0  0  0  0  0
   13.0726   -4.6648   23.3394 O   0  0  0  0  0  0  0  0  0  0  0  0
    8.5955   -6.0705   17.3996 C   0  0  0  0  0  0  0  0  0  0  0  0
    4.6223   -8.3832   16.5030 C   0  0  0  0  0  0  0  0  0  0  0  0
   12.4690   -5.2624   19.9024 C   0  0  0  0  0  0  0  0  0  0  0  0
    3.2548   -9.9919   17.4189 C   0  0  0  0  0  0  0  0  0  0  0  0
   12.4767   -4.7393   22.1790 C   0  0  0  0  0  0  0  0  0  0  0  0
    7.8593   -5.3772   15.3569 N   0  0  0  0  0  0  0  0  0  0  0  0
    7.4412   -6.9038   16.9283 C   0  0  0  0  0  0  0  0  0  0  0  0
  1 21  4  0
  1 23  4  0
  2  5  1  0
  2 13  4  0
  2 16  4  0
  3  6  4  0
  3  7  4  0
  4 13  4  0
  4 19  4  0
  4 24  4  0
  6 23  4  0
  7 16  1  0
  7 21  4  0
  8 18  1  0
  9 20  4  0
  9 22  4  0
 10 17  1  0
 10 25  1  0
 11 16  4  0
 11 19  4  0
 12 15  4  0
 12 22  4  0
 14 24  4  0
 14 25  4  0
 15 17  4  0
 17 20  4  0
 18 23  1  0
 19 25  4  0
M  END
$$$$

 Created by Python create_sdf_string function

 25 28  0  0  0  0  0  0  0  0999 V2000
   13.1533   -5.2399   21.0682 C   0  0  0  0  0  0  0  0  0  0  0  0
   10.4729   -4.0295   17.6135 C   0  0  0  0  0  0  0  0  0  0  0  0
   10.4789   -4.3641   20.9564 C   0  0  0  0  0  0  0  0  0  0  0  0
    8.7421   -5.1412   16.3650 C   0  0  0  0  0  0  0  0  0  0  0  0
   11.4353   -2.9204   17.8044 C   0  0  0  0  0  0  0  0  0  0  0  0
   11.1529   -4.3028   22.1277 C   0  0  0  0  0  0  0  0  0  0  0  0
   11.1290   -4.8502   19.8052 C   0  0  0  0  0  0  0  0  0  0  0  0
   12.4329   -4.2159   24.4224 C   0  0  0  0  0  0  0  0  0  0  0  0
    3.4740   -9.0387   16.5022 C   0  0  0  0  0  0  0  0  0  0  0  0
    6.8384   -7.9290   17.5282 N   0  0  0  0  0  0  0  0  0  0  0  0
    9.4126   -5.9853   18.4899 C   0  0  0  0  0  0  0  0  0  0  0  0
    4.2064  -10.3242   18.3302 C   0  0  0  0  0  0  0  0  0  0  0  0
    9.6599   -4.1551   16.4796 N   0  0  0  0  0  0  0  0  0  0  0  0
    7.0644   -6.4612   15.7375 N   0  0  0  0  0  0  0  0  0  0  0  0
    5.3549   -9.6322   18.3190 C   0  0  0  0  0  0  0  0  0  0  0  0
   10.3704   -4.9638   18.6510 C   0  0  0  0  0  0  0  0  0  0  0  0
    5.5935   -8.6419   17.4234 C   0  0  0  0  0  0  0  0  0  0  0  0
   13.0726   -4.6648   23.3394 O   0  0  0  0  0  0  0  0  0  0  0  0
    8.5955   -6.0705   17.3996 C   0  0  0  0  0  0  0  0  0  0  0  0
    4.6223   -8.3832   16.5030 C   0  0  0  0  0  0  0  0  0  0  0  0
   12.4690   -5.2624   19.9024 C   0  0  0  0  0  0  0  0  0  0  0  0
    3.2548   -9.9919   17.4189 C   0  0  0  0  0  0  0  0  0  0  0  0
   12.4767   -4.7393   22.1790 C   0  0  0  0  0  0  0  0  0  0  0  0
    7.8593   -5.3772   15.3569 N   0  0  0  0  0  0  0  0  0  0  0  0
    7.4412   -6.9038   16.9283 C   0  0  0  0  0  0  0  0  0  0  0  0
  1 21  4  0
  1 23  4  0
  2  5  1  0
  2 13  4  0
  2 16  4  0
  3  6  4  0
  3  7  4  0
  4 13  4  0
  4 19  4  0
  4 24  4  0
  6 23  4  0
  7 16  1  0
  7 21  4  0
  8 18  1  0
  9 20  4  0
  9 22  4  0
 10 17  1  0
 10 25  1  0
 11 16  4  0
 11 19  4  0
 12 15  4  0
 12 22  4  0
 14 24  4  0
 14 25  4  0
 15 17  4  0
 17 20  4  0
 18 23  1  0
 19 25  4  0
M  END
$$$$

 Created by Python create_sdf_string function

 25 28  0  0  0  0  0  0  0  0999 V2000
   13.1533   -5.2399   21.0682 C   0  0  0  0  0  0  0  0  0  0  0  0
   10.4729   -4.0295   17.6135 C   0  0  0  0  0  0  0  0  0  0  0  0
   10.4789   -4.3641   20.9564 C   0  0  0  0  0  0  0  0  0  0  0  0
    8.7421   -5.1412   16.3650 C   0  0  0  0  0  0  0  0  0  0  0  0
   11.4353   -2.9204   17.8044 C   0  0  0  0  0  0  0  0  0  0  0  0
   11.1529   -4.3028   22.1277 C   0  0  0  0  0  0  0  0  0  0  0  0
   11.1290   -4.8502   19.8052 C   0  0  0  0  0  0  0  0  0  0  0  0
   12.4329   -4.2159   24.4224 C   0  0  0  0  0  0  0  0  0  0  0  0
    3.4740   -9.0387   16.5022 C   0  0  0  0  0  0  0  0  0  0  0  0
    6.8384   -7.9290   17.5282 N   0  0  0  0  0  0  0  0  0  0  0  0
    9.4126   -5.9853   18.4899 C   0  0  0  0  0  0  0  0  0  0  0  0
    4.2064  -10.3242   18.3302 C   0  0  0  0  0  0  0  0  0  0  0  0
    9.6599   -4.1551   16.4796 N   0  0  0  0  0  0  0  0  0  0  0  0
    7.0644   -6.4612   15.7375 N   0  0  0  0  0  0  0  0  0  0  0  0
    5.3549   -9.6322   18.3190 C   0  0  0  0  0  0  0  0  0  0  0  0
   10.3704   -4.9638   18.6510 C   0  0  0  0  0  0  0  0  0  0  0  0
    5.5935   -8.6419   17.4234 C   0  0  0  0  0  0  0  0  0  0  0  0
   13.0726   -4.6648   23.3394 O   0  0  0  0  0  0  0  0  0  0  0  0
    8.5955   -6.0705   17.3996 C   0  0  0  0  0  0  0  0  0  0  0  0
    4.6223   -8.3832   16.5030 C   0  0  0  0  0  0  0  0  0  0  0  0
   12.4690   -5.2624   19.9024 C   0  0  0  0  0  0  0  0  0  0  0  0
    3.2548   -9.9919   17.4189 C   0  0  0  0  0  0  0  0  0  0  0  0
   12.4767   -4.7393   22.1790 C   0  0  0  0  0  0  0  0  0  0  0  0
    7.8593   -5.3772   15.3569 N   0  0  0  0  0  0  0  0  0  0  0  0
    7.4412   -6.9038   16.9283 C   0  0  0  0  0  0  0  0  0  0  0  0
  1 21  4  0
  1 23  4  0
  2  5  1  0
  2 13  4  0
  2 16  4  0
  3  6  4  0
  3  7  4  0
  4 13  4  0
  4 19  4  0
  4 24  4  0
  6 23  4  0
  7 16  1  0
  7 21  4  0
  8 18  1  0
  9 20  4  0
  9 22  4  0
 10 17  1  0
 10 25  1  0
 11 16  4  0
 11 19  4  0
 12 15  4  0
 12 22  4  0
 14 24  4  0
 14 25  4  0
 15 17  4  0
 17 20  4  0
 18 23  1  0
 19 25  4  0
M  END
$$$$

 Created by Python create_sdf_string function

 25 28  0  0  0  0  0  0  0  0999 V2000
   13.1533   -5.2399   21.0682 C   0  0  0  0  0  0  0  0  0  0  0  0
   10.4729   -4.0295   17.6135 C   0  0  0  0  0  0  0  0  0  0  0  0
   10.4789   -4.3641   20.9564 C   0  0  0  0  0  0  0  0  0  0  0  0
    8.7421   -5.1412   16.3650 C   0  0  0  0  0  0  0  0  0  0  0  0
   11.4353   -2.9204   17.8044 C   0  0  0  0  0  0  0  0  0  0  0  0
   11.1529   -4.3028   22.1277 C   0  0  0  0  0  0  0  0  0  0  0  0
   11.1290   -4.8502   19.8052 C   0  0  0  0  0  0  0  0  0  0  0  0
   12.4329   -4.2159   24.4224 C   0  0  0  0  0  0  0  0  0  0  0  0
    3.4740   -9.0387   16.5022 C   0  0  0  0  0  0  0  0  0  0  0  0
    6.8384   -7.9290   17.5282 N   0  0  0  0  0  0  0  0  0  0  0  0
    9.4126   -5.9853   18.4899 C   0  0  0  0  0  0  0  0  0  0  0  0
    4.2064  -10.3242   18.3302 C   0  0  0  0  0  0  0  0  0  0  0  0
    9.6599   -4.1551   16.4796 N   0  0  0  0  0  0  0  0  0  0  0  0
    7.0644   -6.4612   15.7375 N   0  0  0  0  0  0  0  0  0  0  0  0
    5.3549   -9.6322   18.3190 C   0  0  0  0  0  0  0  0  0  0  0  0
   10.3704   -4.9638   18.6510 C   0  0  0  0  0  0  0  0  0  0  0  0
    5.5935   -8.6419   17.4234 C   0  0  0  0  0  0  0  0  0  0  0  0
   13.0726   -4.6648   23.3394 O   0  0  0  0  0  0  0  0  0  0  0  0
    8.5955   -6.0705   17.3996 C   0  0  0  0  0  0  0  0  0  0  0  0
    4.6223   -8.3832   16.5030 C   0  0  0  0  0  0  0  0  0  0  0  0
   12.4690   -5.2624   19.9024 C   0  0  0  0  0  0  0  0  0  0  0  0
    3.2548   -9.9919   17.4189 C   0  0  0  0  0  0  0  0  0  0  0  0
   12.4767   -4.7393   22.1790 C   0  0  0  0  0  0  0  0  0  0  0  0
    7.8593   -5.3772   15.3569 N   0  0  0  0  0  0  0  0  0  0  0  0
    7.4412   -6.9038   16.9283 C   0  0  0  0  0  0  0  0  0  0  0  0
  1 21  4  0
  1 23  4  0
  2  5  1  0
  2 13  4  0
  2 16  4  0
  3  6  4  0
  3  7  4  0
  4 13  4  0
  4 19  4  0
  4 24  4  0
  6 23  4  0
  7 16  1  0
  7 21  4  0
  8 18  1  0
  9 20  4  0
  9 22  4  0
 10 17  1  0
 10 25  1  0
 11 16  4  0
 11 19  4  0
 12 15  4  0
 12 22  4  0
 14 24  4  0
 14 25  4  0
 15 17  4  0
 17 20  4  0
 18 23  1  0
 19 25  4  0
M  END
$$$$

 Created by Python create_sdf_string function

 25 28  0  0  0  0  0  0  0  0999 V2000
   13.1533   -5.2399   21.0682 C   0  0  0  0  0  0  0  0  0  0  0  0
   10.4729   -4.0295   17.6135 C   0  0  0  0  0  0  0  0  0  0  0  0
   10.4789   -4.3641   20.9564 C   0  0  0  0  0  0  0  0  0  0  0  0
    8.7421   -5.1412   16.3650 C   0  0  0  0  0  0  0  0  0  0  0  0
   11.4353   -2.9204   17.8044 C   0  0  0  0  0  0  0  0  0  0  0  0
   11.1529   -4.3028   22.1277 C   0  0  0  0  0  0  0  0  0  0  0  0
   11.1290   -4.8502   19.8052 C   0  0  0  0  0  0  0  0  0  0  0  0
   12.4329   -4.2159   24.4224 C   0  0  0  0  0  0  0  0  0  0  0  0
    3.4740   -9.0387   16.5022 C   0  0  0  0  0  0  0  0  0  0  0  0
    6.8384   -7.9290   17.5282 N   0  0  0  0  0  0  0  0  0  0  0  0
    9.4126   -5.9853   18.4899 C   0  0  0  0  0  0  0  0  0  0  0  0
    4.2064  -10.3242   18.3302 C   0  0  0  0  0  0  0  0  0  0  0  0
    9.6599   -4.1551   16.4796 N   0  0  0  0  0  0  0  0  0  0  0  0
    7.0644   -6.4612   15.7375 N   0  0  0  0  0  0  0  0  0  0  0  0
    5.3549   -9.6322   18.3190 C   0  0  0  0  0  0  0  0  0  0  0  0
   10.3704   -4.9638   18.6510 C   0  0  0  0  0  0  0  0  0  0  0  0
    5.5935   -8.6419   17.4234 C   0  0  0  0  0  0  0  0  0  0  0  0
   13.0726   -4.6648   23.3394 O   0  0  0  0  0  0  0  0  0  0  0  0
    8.5955   -6.0705   17.3996 C   0  0  0  0  0  0  0  0  0  0  0  0
    4.6223   -8.3832   16.5030 C   0  0  0  0  0  0  0  0  0  0  0  0
   12.4690   -5.2624   19.9024 C   0  0  0  0  0  0  0  0  0  0  0  0
    3.2548   -9.9919   17.4189 C   0  0  0  0  0  0  0  0  0  0  0  0
   12.4767   -4.7393   22.1790 C   0  0  0  0  0  0  0  0  0  0  0  0
    7.8593   -5.3772   15.3569 N   0  0  0  0  0  0  0  0  0  0  0  0
    7.4412   -6.9038   16.9283 C   0  0  0  0  0  0  0  0  0  0  0  0
  1 21  4  0
  1 23  4  0
  2  5  1  0
  2 13  4  0
  2 16  4  0
  3  6  4  0
  3  7  4  0
  4 13  4  0
  4 19  4  0
  4 24  4  0
  6 23  4  0
  7 16  1  0
  7 21  4  0
  8 18  1  0
  9 20  4  0
  9 22  4  0
 10 17  1  0
 10 25  1  0
 11 16  4  0
 11 19  4  0
 12 15  4  0
 12 22  4  0
 14 24  4  0
 14 25  4  0
 15 17  4  0
 17 20  4  0
 18 23  1  0
 19 25  4  0
M  END
$$$$

 Created by Python create_sdf_string function

 25 28  0  0  0  0  0  0  0  0999 V2000
   13.1533   -5.2399   21.0682 C   0  0  0  0  0  0  0  0  0  0  0  0
   10.4729   -4.0295   17.6135 C   0  0  0  0  0  0  0  0  0  0  0  0
   10.4789   -4.3641   20.9564 C   0  0  0  0  0  0  0  0  0  0  0  0
    8.7421   -5.1412   16.3650 C   0  0  0  0  0  0  0  0  0  0  0  0
   11.4353   -2.9204   17.8044 C   0  0  0  0  0  0  0  0  0  0  0  0
   11.1529   -4.3028   22.1277 C   0  0  0  0  0  0  0  0  0  0  0  0
   11.1290   -4.8502   19.8052 C   0  0  0  0  0  0  0  0  0  0  0  0
   12.4329   -4.2159   24.4224 C   0  0  0  0  0  0  0  0  0  0  0  0
    3.4740   -9.0387   16.5022 C   0  0  0  0  0  0  0  0  0  0  0  0
    6.8384   -7.9290   17.5282 N   0  0  0  0  0  0  0  0  0  0  0  0
    9.4126   -5.9853   18.4899 C   0  0  0  0  0  0  0  0  0  0  0  0
    4.2064  -10.3242   18.3302 C   0  0  0  0  0  0  0  0  0  0  0  0
    9.6599   -4.1551   16.4796 N   0  0  0  0  0  0  0  0  0  0  0  0
    7.0644   -6.4612   15.7375 N   0  0  0  0  0  0  0  0  0  0  0  0
    5.3549   -9.6322   18.3190 C   0  0  0  0  0  0  0  0  0  0  0  0
   10.3704   -4.9638   18.6510 C   0  0  0  0  0  0  0  0  0  0  0  0
    5.5935   -8.6419   17.4234 C   0  0  0  0  0  0  0  0  0  0  0  0
   13.0726   -4.6648   23.3394 O   0  0  0  0  0  0  0  0  0  0  0  0
    8.5955   -6.0705   17.3996 C   0  0  0  0  0  0  0  0  0  0  0  0
    4.6223   -8.3832   16.5030 C   0  0  0  0  0  0  0  0  0  0  0  0
   12.4690   -5.2624   19.9024 C   0  0  0  0  0  0  0  0  0  0  0  0
    3.2548   -9.9919   17.4189 C   0  0  0  0  0  0  0  0  0  0  0  0
   12.4767   -4.7393   22.1790 C   0  0  0  0  0  0  0  0  0  0  0  0
    7.8593   -5.3772   15.3569 N   0  0  0  0  0  0  0  0  0  0  0  0
    7.4412   -6.9038   16.9283 C   0  0  0  0  0  0  0  0  0  0  0  0
  1 21  4  0
  1 23  4  0
  2  5  1  0
  2 13  4  0
  2 16  4  0
  3  6  4  0
  3  7  4  0
  4 13  4  0
  4 19  4  0
  4 24  4  0
  6 23  4  0
  7 16  1  0
  7 21  4  0
  8 18  1  0
  9 20  4  0
  9 22  4  0
 10 17  1  0
 10 25  1  0
 11 16  4  0
 11 19  4  0
 12 15  4  0
 12 22  4  0
 14 24  4  0
 14 25  4  0
 15 17  4  0
 17 20  4  0
 18 23  1  0
 19 25  4  0
M  END
$$$$

 Created by Python create_sdf_string function

 25 28  0  0  0  0  0  0  0  0999 V2000
   13.1533   -5.2399   21.0682 C   0  0  0  0  0  0  0  0  0  0  0  0
   10.4729   -4.0295   17.6135 C   0  0  0  0  0  0  0  0  0  0  0  0
   10.4789   -4.3641   20.9564 C   0  0  0  0  0  0  0  0  0  0  0  0
    8.7421   -5.1412   16.3650 C   0  0  0  0  0  0  0  0  0  0  0  0
   11.4353   -2.9204   17.8044 C   0  0  0  0  0  0  0  0  0  0  0  0
   11.1529   -4.3028   22.1277 C   0  0  0  0  0  0  0  0  0  0  0  0
   11.1290   -4.8502   19.8052 C   0  0  0  0  0  0  0  0  0  0  0  0
   12.4329   -4.2159   24.4224 C   0  0  0  0  0  0  0  0  0  0  0  0
    3.4740   -9.0387   16.5022 C   0  0  0  0  0  0  0  0  0  0  0  0
    6.8384   -7.9290   17.5282 N   0  0  0  0  0  0  0  0  0  0  0  0
    9.4126   -5.9853   18.4899 C   0  0  0  0  0  0  0  0  0  0  0  0
    4.2064  -10.3242   18.3302 C   0  0  0  0  0  0  0  0  0  0  0  0
    9.6599   -4.1551   16.4796 N   0  0  0  0  0  0  0  0  0  0  0  0
    7.0644   -6.4612   15.7375 N   0  0  0  0  0  0  0  0  0  0  0  0
    5.3549   -9.6322   18.3190 C   0  0  0  0  0  0  0  0  0  0  0  0
   10.3704   -4.9638   18.6510 C   0  0  0  0  0  0  0  0  0  0  0  0
    5.5935   -8.6419   17.4234 C   0  0  0  0  0  0  0  0  0  0  0  0
   13.0726   -4.6648   23.3394 O   0  0  0  0  0  0  0  0  0  0  0  0
    8.5955   -6.0705   17.3996 C   0  0  0  0  0  0  0  0  0  0  0  0
    4.6223   -8.3832   16.5030 C   0  0  0  0  0  0  0  0  0  0  0  0
   12.4690   -5.2624   19.9024 C   0  0  0  0  0  0  0  0  0  0  0  0
    3.2548   -9.9919   17.4189 C   0  0  0  0  0  0  0  0  0  0  0  0
   12.4767   -4.7393   22.1790 C   0  0  0  0  0  0  0  0  0  0  0  0
    7.8593   -5.3772   15.3569 N   0  0  0  0  0  0  0  0  0  0  0  0
    7.4412   -6.9038   16.9283 C   0  0  0  0  0  0  0  0  0  0  0  0
  1 21  4  0
  1 23  4  0
  2  5  1  0
  2 13  4  0
  2 16  4  0
  3  6  4  0
  3  7  4  0
  4 13  4  0
  4 19  4  0
  4 24  4  0
  6 23  4  0
  7 16  1  0
  7 21  4  0
  8 18  1  0
  9 20  4  0
  9 22  4  0
 10 17  1  0
 10 25  1  0
 11 16  4  0
 11 19  4  0
 12 15  4  0
 12 22  4  0
 14 24  4  0
 14 25  4  0
 15 17  4  0
 17 20  4  0
 18 23  1  0
 19 25  4  0
M  END
$$$$

 Created by Python create_sdf_string function

 25 28  0  0  0  0  0  0  0  0999 V2000
   13.1533   -5.2399   21.0682 C   0  0  0  0  0  0  0  0  0  0  0  0
   10.4729   -4.0295   17.6135 C   0  0  0  0  0  0  0  0  0  0  0  0
   10.4789   -4.3641   20.9564 C   0  0  0  0  0  0  0  0  0  0  0  0
    8.7421   -5.1412   16.3650 C   0  0  0  0  0  0  0  0  0  0  0  0
   11.4353   -2.9204   17.8044 C   0  0  0  0  0  0  0  0  0  0  0  0
   11.1529   -4.3028   22.1277 C   0  0  0  0  0  0  0  0  0  0  0  0
   11.1290   -4.8502   19.8052 C   0  0  0  0  0  0  0  0  0  0  0  0
   12.4329   -4.2159   24.4224 C   0  0  0  0  0  0  0  0  0  0  0  0
    3.4740   -9.0387   16.5022 C   0  0  0  0  0  0  0  0  0  0  0  0
    6.8384   -7.9290   17.5282 N   0  0  0  0  0  0  0  0  0  0  0  0
    9.4126   -5.9853   18.4899 C   0  0  0  0  0  0  0  0  0  0  0  0
    4.2064  -10.3242   18.3302 C   0  0  0  0  0  0  0  0  0  0  0  0
    9.6599   -4.1551   16.4796 N   0  0  0  0  0  0  0  0  0  0  0  0
    7.0644   -6.4612   15.7375 N   0  0  0  0  0  0  0  0  0  0  0  0
    5.3549   -9.6322   18.3190 C   0  0  0  0  0  0  0  0  0  0  0  0
   10.3704   -4.9638   18.6510 C   0  0  0  0  0  0  0  0  0  0  0  0
    5.5935   -8.6419   17.4234 C   0  0  0  0  0  0  0  0  0  0  0  0
   13.0726   -4.6648   23.3394 O   0  0  0  0  0  0  0  0  0  0  0  0
    8.5955   -6.0705   17.3996 C   0  0  0  0  0  0  0  0  0  0  0  0
    4.6223   -8.3832   16.5030 C   0  0  0  0  0  0  0  0  0  0  0  0
   12.4690   -5.2624   19.9024 C   0  0  0  0  0  0  0  0  0  0  0  0
    3.2548   -9.9919   17.4189 C   0  0  0  0  0  0  0  0  0  0  0  0
   12.4767   -4.7393   22.1790 C   0  0  0  0  0  0  0  0  0  0  0  0
    7.8593   -5.3772   15.3569 N   0  0  0  0  0  0  0  0  0  0  0  0
    7.4412   -6.9038   16.9283 C   0  0  0  0  0  0  0  0  0  0  0  0
  1 21  4  0
  1 23  4  0
  2  5  1  0
  2 13  4  0
  2 16  4  0
  3  6  4  0
  3  7  4  0
  4 13  4  0
  4 19  4  0
  4 24  4  0
  6 23  4  0
  7 16  1  0
  7 21  4  0
  8 18  1  0
  9 20  4  0
  9 22  4  0
 10 17  1  0
 10 25  1  0
 11 16  4  0
 11 19  4  0
 12 15  4  0
 12 22  4  0
 14 24  4  0
 14 25  4  0
 15 17  4  0
 17 20  4  0
 18 23  1  0
 19 25  4  0
M  END
$$$$

 Created by Python create_sdf_string function

 25 28  0  0  0  0  0  0  0  0999 V2000
   13.1533   -5.2399   21.0682 C   0  0  0  0  0  0  0  0  0  0  0  0
   10.4729   -4.0295   17.6135 C   0  0  0  0  0  0  0  0  0  0  0  0
   10.4789   -4.3641   20.9564 C   0  0  0  0  0  0  0  0  0  0  0  0
    8.7421   -5.1412   16.3650 C   0  0  0  0  0  0  0  0  0  0  0  0
   11.4353   -2.9204   17.8044 C   0  0  0  0  0  0  0  0  0  0  0  0
   11.1529   -4.3028   22.1277 C   0  0  0  0  0  0  0  0  0  0  0  0
   11.1290   -4.8502   19.8052 C   0  0  0  0  0  0  0  0  0  0  0  0
   12.4329   -4.2159   24.4224 C   0  0  0  0  0  0  0  0  0  0  0  0
    3.4740   -9.0387   16.5022 C   0  0  0  0  0  0  0  0  0  0  0  0
    6.8384   -7.9290   17.5282 N   0  0  0  0  0  0  0  0  0  0  0  0
    9.4126   -5.9853   18.4899 C   0  0  0  0  0  0  0  0  0  0  0  0
    4.2064  -10.3242   18.3302 C   0  0  0  0  0  0  0  0  0  0  0  0
    9.6599   -4.1551   16.4796 N   0  0  0  0  0  0  0  0  0  0  0  0
    7.0644   -6.4612   15.7375 N   0  0  0  0  0  0  0  0  0  0  0  0
    5.3549   -9.6322   18.3190 C   0  0  0  0  0  0  0  0  0  0  0  0
   10.3704   -4.9638   18.6510 C   0  0  0  0  0  0  0  0  0  0  0  0
    5.5935   -8.6419   17.4234 C   0  0  0  0  0  0  0  0  0  0  0  0
   13.0726   -4.6648   23.3394 O   0  0  0  0  0  0  0  0  0  0  0  0
    8.5955   -6.0705   17.3996 C   0  0  0  0  0  0  0  0  0  0  0  0
    4.6223   -8.3832   16.5030 C   0  0  0  0  0  0  0  0  0  0  0  0
   12.4690   -5.2624   19.9024 C   0  0  0  0  0  0  0  0  0  0  0  0
    3.2548   -9.9919   17.4189 C   0  0  0  0  0  0  0  0  0  0  0  0
   12.4767   -4.7393   22.1790 C   0  0  0  0  0  0  0  0  0  0  0  0
    7.8593   -5.3772   15.3569 N   0  0  0  0  0  0  0  0  0  0  0  0
    7.4412   -6.9038   16.9283 C   0  0  0  0  0  0  0  0  0  0  0  0
  1 21  4  0
  1 23  4  0
  2  5  1  0
  2 13  4  0
  2 16  4  0
  3  6  4  0
  3  7  4  0
  4 13  4  0
  4 19  4  0
  4 24  4  0
  6 23  4  0
  7 16  1  0
  7 21  4  0
  8 18  1  0
  9 20  4  0
  9 22  4  0
 10 17  1  0
 10 25  1  0
 11 16  4  0
 11 19  4  0
 12 15  4  0
 12 22  4  0
 14 24  4  0
 14 25  4  0
 15 17  4  0
 17 20  4  0
 18 23  1  0
 19 25  4  0
M  END
$$$$

 Created by Python create_sdf_string function

 25 28  0  0  0  0  0  0  0  0999 V2000
   13.1533   -5.2399   21.0682 C   0  0  0  0  0  0  0  0  0  0  0  0
   10.4729   -4.0295   17.6135 C   0  0  0  0  0  0  0  0  0  0  0  0
   10.4789   -4.3641   20.9564 C   0  0  0  0  0  0  0  0  0  0  0  0
    8.7421   -5.1412   16.3650 C   0  0  0  0  0  0  0  0  0  0  0  0
   11.4353   -2.9204   17.8044 C   0  0  0  0  0  0  0  0  0  0  0  0
   11.1529   -4.3028   22.1277 C   0  0  0  0  0  0  0  0  0  0  0  0
   11.1290   -4.8502   19.8052 C   0  0  0  0  0  0  0  0  0  0  0  0
   12.4329   -4.2159   24.4224 C   0  0  0  0  0  0  0  0  0  0  0  0
    3.4740   -9.0387   16.5022 C   0  0  0  0  0  0  0  0  0  0  0  0
    6.8384   -7.9290   17.5282 N   0  0  0  0  0  0  0  0  0  0  0  0
    9.4126   -5.9853   18.4899 C   0  0  0  0  0  0  0  0  0  0  0  0
    4.2064  -10.3242   18.3302 C   0  0  0  0  0  0  0  0  0  0  0  0
    9.6599   -4.1551   16.4796 N   0  0  0  0  0  0  0  0  0  0  0  0
    7.0644   -6.4612   15.7375 N   0  0  0  0  0  0  0  0  0  0  0  0
    5.3549   -9.6322   18.3190 C   0  0  0  0  0  0  0  0  0  0  0  0
   10.3704   -4.9638   18.6510 C   0  0  0  0  0  0  0  0  0  0  0  0
    5.5935   -8.6419   17.4234 C   0  0  0  0  0  0  0  0  0  0  0  0
   13.0726   -4.6648   23.3394 O   0  0  0  0  0  0  0  0  0  0  0  0
    8.5955   -6.0705   17.3996 C   0  0  0  0  0  0  0  0  0  0  0  0
    4.6223   -8.3832   16.5030 C   0  0  0  0  0  0  0  0  0  0  0  0
   12.4690   -5.2624   19.9024 C   0  0  0  0  0  0  0  0  0  0  0  0
    3.2548   -9.9919   17.4189 C   0  0  0  0  0  0  0  0  0  0  0  0
   12.4767   -4.7393   22.1790 C   0  0  0  0  0  0  0  0  0  0  0  0
    7.8593   -5.3772   15.3569 N   0  0  0  0  0  0  0  0  0  0  0  0
    7.4412   -6.9038   16.9283 C   0  0  0  0  0  0  0  0  0  0  0  0
  1 21  4  0
  1 23  4  0
  2  5  1  0
  2 13  4  0
  2 16  4  0
  3  6  4  0
  3  7  4  0
  4 13  4  0
  4 19  4  0
  4 24  4  0
  6 23  4  0
  7 16  1  0
  7 21  4  0
  8 18  1  0
  9 20  4  0
  9 22  4  0
 10 17  1  0
 10 25  1  0
 11 16  4  0
 11 19  4  0
 12 15  4  0
 12 22  4  0
 14 24  4  0
 14 25  4  0
 15 17  4  0
 17 20  4  0
 18 23  1  0
 19 25  4  0
M  END
$$$$

 Created by Python create_sdf_string function

 25 28  0  0  0  0  0  0  0  0999 V2000
   13.1533   -5.2399   21.0682 C   0  0  0  0  0  0  0  0  0  0  0  0
   10.4729   -4.0295   17.6135 C   0  0  0  0  0  0  0  0  0  0  0  0
   10.4789   -4.3641   20.9564 C   0  0  0  0  0  0  0  0  0  0  0  0
    8.7421   -5.1412   16.3650 C   0  0  0  0  0  0  0  0  0  0  0  0
   11.4353   -2.9204   17.8044 C   0  0  0  0  0  0  0  0  0  0  0  0
   11.1529   -4.3028   22.1277 C   0  0  0  0  0  0  0  0  0  0  0  0
   11.1290   -4.8502   19.8052 C   0  0  0  0  0  0  0  0  0  0  0  0
   12.4329   -4.2159   24.4224 C   0  0  0  0  0  0  0  0  0  0  0  0
    3.4740   -9.0387   16.5022 C   0  0  0  0  0  0  0  0  0  0  0  0
    6.8384   -7.9290   17.5282 N   0  0  0  0  0  0  0  0  0  0  0  0
    9.4126   -5.9853   18.4899 C   0  0  0  0  0  0  0  0  0  0  0  0
    4.2064  -10.3242   18.3302 C   0  0  0  0  0  0  0  0  0  0  0  0
    9.6599   -4.1551   16.4796 N   0  0  0  0  0  0  0  0  0  0  0  0
    7.0644   -6.4612   15.7375 N   0  0  0  0  0  0  0  0  0  0  0  0
    5.3549   -9.6322   18.3190 C   0  0  0  0  0  0  0  0  0  0  0  0
   10.3704   -4.9638   18.6510 C   0  0  0  0  0  0  0  0  0  0  0  0
    5.5935   -8.6419   17.4234 C   0  0  0  0  0  0  0  0  0  0  0  0
   13.0726   -4.6648   23.3394 O   0  0  0  0  0  0  0  0  0  0  0  0
    8.5955   -6.0705   17.3996 C   0  0  0  0  0  0  0  0  0  0  0  0
    4.6223   -8.3832   16.5030 C   0  0  0  0  0  0  0  0  0  0  0  0
   12.4690   -5.2624   19.9024 C   0  0  0  0  0  0  0  0  0  0  0  0
    3.2548   -9.9919   17.4189 C   0  0  0  0  0  0  0  0  0  0  0  0
   12.4767   -4.7393   22.1790 C   0  0  0  0  0  0  0  0  0  0  0  0
    7.8593   -5.3772   15.3569 N   0  0  0  0  0  0  0  0  0  0  0  0
    7.4412   -6.9038   16.9283 C   0  0  0  0  0  0  0  0  0  0  0  0
  1 21  4  0
  1 23  4  0
  2  5  1  0
  2 13  4  0
  2 16  4  0
  3  6  4  0
  3  7  4  0
  4 13  4  0
  4 19  4  0
  4 24  4  0
  6 23  4  0
  7 16  1  0
  7 21  4  0
  8 18  1  0
  9 20  4  0
  9 22  4  0
 10 17  1  0
 10 25  1  0
 11 16  4  0
 11 19  4  0
 12 15  4  0
 12 22  4  0
 14 24  4  0
 14 25  4  0
 15 17  4  0
 17 20  4  0
 18 23  1  0
 19 25  4  0
M  END
$$$$

 Created by Python create_sdf_string function

 25 28  0  0  0  0  0  0  0  0999 V2000
   13.1533   -5.2399   21.0682 C   0  0  0  0  0  0  0  0  0  0  0  0
   10.4729   -4.0295   17.6135 C   0  0  0  0  0  0  0  0  0  0  0  0
   10.4789   -4.3641   20.9564 C   0  0  0  0  0  0  0  0  0  0  0  0
    8.7421   -5.1412   16.3650 C   0  0  0  0  0  0  0  0  0  0  0  0
   11.4353   -2.9204   17.8044 C   0  0  0  0  0  0  0  0  0  0  0  0
   11.1529   -4.3028   22.1277 C   0  0  0  0  0  0  0  0  0  0  0  0
   11.1290   -4.8502   19.8052 C   0  0  0  0  0  0  0  0  0  0  0  0
   12.4329   -4.2159   24.4224 C   0  0  0  0  0  0  0  0  0  0  0  0
    3.4740   -9.0387   16.5022 C   0  0  0  0  0  0  0  0  0  0  0  0
    6.8384   -7.9290   17.5282 N   0  0  0  0  0  0  0  0  0  0  0  0
    9.4126   -5.9853   18.4899 C   0  0  0  0  0  0  0  0  0  0  0  0
    4.2064  -10.3242   18.3302 C   0  0  0  0  0  0  0  0  0  0  0  0
    9.6599   -4.1551   16.4796 N   0  0  0  0  0  0  0  0  0  0  0  0
    7.0644   -6.4612   15.7375 N   0  0  0  0  0  0  0  0  0  0  0  0
    5.3549   -9.6322   18.3190 C   0  0  0  0  0  0  0  0  0  0  0  0
   10.3704   -4.9638   18.6510 C   0  0  0  0  0  0  0  0  0  0  0  0
    5.5935   -8.6419   17.4234 C   0  0  0  0  0  0  0  0  0  0  0  0
   13.0726   -4.6648   23.3394 O   0  0  0  0  0  0  0  0  0  0  0  0
    8.5955   -6.0705   17.3996 C   0  0  0  0  0  0  0  0  0  0  0  0
    4.6223   -8.3832   16.5030 C   0  0  0  0  0  0  0  0  0  0  0  0
   12.4690   -5.2624   19.9024 C   0  0  0  0  0  0  0  0  0  0  0  0
    3.2548   -9.9919   17.4189 C   0  0  0  0  0  0  0  0  0  0  0  0
   12.4767   -4.7393   22.1790 C   0  0  0  0  0  0  0  0  0  0  0  0
    7.8593   -5.3772   15.3569 N   0  0  0  0  0  0  0  0  0  0  0  0
    7.4412   -6.9038   16.9283 C   0  0  0  0  0  0  0  0  0  0  0  0
  1 21  4  0
  1 23  4  0
  2  5  1  0
  2 13  4  0
  2 16  4  0
  3  6  4  0
  3  7  4  0
  4 13  4  0
  4 19  4  0
  4 24  4  0
  6 23  4  0
  7 16  1  0
  7 21  4  0
  8 18  1  0
  9 20  4  0
  9 22  4  0
 10 17  1  0
 10 25  1  0
 11 16  4  0
 11 19  4  0
 12 15  4  0
 12 22  4  0
 14 24  4  0
 14 25  4  0
 15 17  4  0
 17 20  4  0
 18 23  1  0
 19 25  4  0
M  END
$$$$

 Created by Python create_sdf_string function

 25 28  0  0  0  0  0  0  0  0999 V2000
   13.1533   -5.2399   21.0682 C   0  0  0  0  0  0  0  0  0  0  0  0
   10.4729   -4.0295   17.6135 C   0  0  0  0  0  0  0  0  0  0  0  0
   10.4789   -4.3641   20.9564 C   0  0  0  0  0  0  0  0  0  0  0  0
    8.7421   -5.1412   16.3650 C   0  0  0  0  0  0  0  0  0  0  0  0
   11.4353   -2.9204   17.8044 C   0  0  0  0  0  0  0  0  0  0  0  0
   11.1529   -4.3028   22.1277 C   0  0  0  0  0  0  0  0  0  0  0  0
   11.1290   -4.8502   19.8052 C   0  0  0  0  0  0  0  0  0  0  0  0
   12.4329   -4.2159   24.4224 C   0  0  0  0  0  0  0  0  0  0  0  0
    3.4740   -9.0387   16.5022 C   0  0  0  0  0  0  0  0  0  0  0  0
    6.8384   -7.9290   17.5282 N   0  0  0  0  0  0  0  0  0  0  0  0
    9.4126   -5.9853   18.4899 C   0  0  0  0  0  0  0  0  0  0  0  0
    4.2064  -10.3242   18.3302 C   0  0  0  0  0  0  0  0  0  0  0  0
    9.6599   -4.1551   16.4796 N   0  0  0  0  0  0  0  0  0  0  0  0
    7.0644   -6.4612   15.7375 N   0  0  0  0  0  0  0  0  0  0  0  0
    5.3549   -9.6322   18.3190 C   0  0  0  0  0  0  0  0  0  0  0  0
   10.3704   -4.9638   18.6510 C   0  0  0  0  0  0  0  0  0  0  0  0
    5.5935   -8.6419   17.4234 C   0  0  0  0  0  0  0  0  0  0  0  0
   13.0726   -4.6648   23.3394 O   0  0  0  0  0  0  0  0  0  0  0  0
    8.5955   -6.0705   17.3996 C   0  0  0  0  0  0  0  0  0  0  0  0
    4.6223   -8.3832   16.5030 C   0  0  0  0  0  0  0  0  0  0  0  0
   12.4690   -5.2624   19.9024 C   0  0  0  0  0  0  0  0  0  0  0  0
    3.2548   -9.9919   17.4189 C   0  0  0  0  0  0  0  0  0  0  0  0
   12.4767   -4.7393   22.1790 C   0  0  0  0  0  0  0  0  0  0  0  0
    7.8593   -5.3772   15.3569 N   0  0  0  0  0  0  0  0  0  0  0  0
    7.4412   -6.9038   16.9283 C   0  0  0  0  0  0  0  0  0  0  0  0
  1 21  4  0
  1 23  4  0
  2  5  1  0
  2 13  4  0
  2 16  4  0
  3  6  4  0
  3  7  4  0
  4 13  4  0
  4 19  4  0
  4 24  4  0
  6 23  4  0
  7 16  1  0
  7 21  4  0
  8 18  1  0
  9 20  4  0
  9 22  4  0
 10 17  1  0
 10 25  1  0
 11 16  4  0
 11 19  4  0
 12 15  4  0
 12 22  4  0
 14 24  4  0
 14 25  4  0
 15 17  4  0
 17 20  4  0
 18 23  1  0
 19 25  4  0
M  END
$$$$

 Created by Python create_sdf_string function

 25 28  0  0  0  0  0  0  0  0999 V2000
   13.1533   -5.2399   21.0682 C   0  0  0  0  0  0  0  0  0  0  0  0
   10.4729   -4.0295   17.6135 C   0  0  0  0  0  0  0  0  0  0  0  0
   10.4789   -4.3641   20.9564 C   0  0  0  0  0  0  0  0  0  0  0  0
    8.7421   -5.1412   16.3650 C   0  0  0  0  0  0  0  0  0  0  0  0
   11.4353   -2.9204   17.8044 C   0  0  0  0  0  0  0  0  0  0  0  0
   11.1529   -4.3028   22.1277 C   0  0  0  0  0  0  0  0  0  0  0  0
   11.1290   -4.8502   19.8052 C   0  0  0  0  0  0  0  0  0  0  0  0
   12.4329   -4.2159   24.4224 C   0  0  0  0  0  0  0  0  0  0  0  0
    3.4740   -9.0387   16.5022 C   0  0  0  0  0  0  0  0  0  0  0  0
    6.8384   -7.9290   17.5282 N   0  0  0  0  0  0  0  0  0  0  0  0
    9.4126   -5.9853   18.4899 C   0  0  0  0  0  0  0  0  0  0  0  0
    4.2064  -10.3242   18.3302 C   0  0  0  0  0  0  0  0  0  0  0  0
    9.6599   -4.1551   16.4796 N   0  0  0  0  0  0  0  0  0  0  0  0
    7.0644   -6.4612   15.7375 N   0  0  0  0  0  0  0  0  0  0  0  0
    5.3549   -9.6322   18.3190 C   0  0  0  0  0  0  0  0  0  0  0  0
   10.3704   -4.9638   18.6510 C   0  0  0  0  0  0  0  0  0  0  0  0
    5.5935   -8.6419   17.4234 C   0  0  0  0  0  0  0  0  0  0  0  0
   13.0726   -4.6648   23.3394 O   0  0  0  0  0  0  0  0  0  0  0  0
    8.5955   -6.0705   17.3996 C   0  0  0  0  0  0  0  0  0  0  0  0
    4.6223   -8.3832   16.5030 C   0  0  0  0  0  0  0  0  0  0  0  0
   12.4690   -5.2624   19.9024 C   0  0  0  0  0  0  0  0  0  0  0  0
    3.2548   -9.9919   17.4189 C   0  0  0  0  0  0  0  0  0  0  0  0
   12.4767   -4.7393   22.1790 C   0  0  0  0  0  0  0  0  0  0  0  0
    7.8593   -5.3772   15.3569 N   0  0  0  0  0  0  0  0  0  0  0  0
    7.4412   -6.9038   16.9283 C   0  0  0  0  0  0  0  0  0  0  0  0
  1 21  4  0
  1 23  4  0
  2  5  1  0
  2 13  4  0
  2 16  4  0
  3  6  4  0
  3  7  4  0
  4 13  4  0
  4 19  4  0
  4 24  4  0
  6 23  4  0
  7 16  1  0
  7 21  4  0
  8 18  1  0
  9 20  4  0
  9 22  4  0
 10 17  1  0
 10 25  1  0
 11 16  4  0
 11 19  4  0
 12 15  4  0
 12 22  4  0
 14 24  4  0
 14 25  4  0
 15 17  4  0
 17 20  4  0
 18 23  1  0
 19 25  4  0
M  END
$$$$

 Created by Python create_sdf_string function

 25 28  0  0  0  0  0  0  0  0999 V2000
   13.1533   -5.2399   21.0682 C   0  0  0  0  0  0  0  0  0  0  0  0
   10.4729   -4.0295   17.6135 C   0  0  0  0  0  0  0  0  0  0  0  0
   10.4789   -4.3641   20.9564 C   0  0  0  0  0  0  0  0  0  0  0  0
    8.7421   -5.1412   16.3650 C   0  0  0  0  0  0  0  0  0  0  0  0
   11.4353   -2.9204   17.8044 C   0  0  0  0  0  0  0  0  0  0  0  0
   11.1529   -4.3028   22.1277 C   0  0  0  0  0  0  0  0  0  0  0  0
   11.1290   -4.8502   19.8052 C   0  0  0  0  0  0  0  0  0  0  0  0
   12.4329   -4.2159   24.4224 C   0  0  0  0  0  0  0  0  0  0  0  0
    3.4740   -9.0387   16.5022 C   0  0  0  0  0  0  0  0  0  0  0  0
    6.8384   -7.9290   17.5282 N   0  0  0  0  0  0  0  0  0  0  0  0
    9.4126   -5.9853   18.4899 C   0  0  0  0  0  0  0  0  0  0  0  0
    4.2064  -10.3242   18.3302 C   0  0  0  0  0  0  0  0  0  0  0  0
    9.6599   -4.1551   16.4796 N   0  0  0  0  0  0  0  0  0  0  0  0
    7.0644   -6.4612   15.7375 N   0  0  0  0  0  0  0  0  0  0  0  0
    5.3549   -9.6322   18.3190 C   0  0  0  0  0  0  0  0  0  0  0  0
   10.3704   -4.9638   18.6510 C   0  0  0  0  0  0  0  0  0  0  0  0
    5.5935   -8.6419   17.4234 C   0  0  0  0  0  0  0  0  0  0  0  0
   13.0726   -4.6648   23.3394 O   0  0  0  0  0  0  0  0  0  0  0  0
    8.5955   -6.0705   17.3996 C   0  0  0  0  0  0  0  0  0  0  0  0
    4.6223   -8.3832   16.5030 C   0  0  0  0  0  0  0  0  0  0  0  0
   12.4690   -5.2624   19.9024 C   0  0  0  0  0  0  0  0  0  0  0  0
    3.2548   -9.9919   17.4189 C   0  0  0  0  0  0  0  0  0  0  0  0
   12.4767   -4.7393   22.1790 C   0  0  0  0  0  0  0  0  0  0  0  0
    7.8593   -5.3772   15.3569 N   0  0  0  0  0  0  0  0  0  0  0  0
    7.4412   -6.9038   16.9283 C   0  0  0  0  0  0  0  0  0  0  0  0
  1 21  4  0
  1 23  4  0
  2  5  1  0
  2 13  4  0
  2 16  4  0
  3  6  4  0
  3  7  4  0
  4 13  4  0
  4 19  4  0
  4 24  4  0
  6 23  4  0
  7 16  1  0
  7 21  4  0
  8 18  1  0
  9 20  4  0
  9 22  4  0
 10 17  1  0
 10 25  1  0
 11 16  4  0
 11 19  4  0
 12 15  4  0
 12 22  4  0
 14 24  4  0
 14 25  4  0
 15 17  4  0
 17 20  4  0
 18 23  1  0
 19 25  4  0
M  END
$$$$

 Created by Python create_sdf_string function

 25 28  0  0  0  0  0  0  0  0999 V2000
   13.1533   -5.2399   21.0682 C   0  0  0  0  0  0  0  0  0  0  0  0
   10.4729   -4.0295   17.6135 C   0  0  0  0  0  0  0  0  0  0  0  0
   10.4789   -4.3641   20.9564 C   0  0  0  0  0  0  0  0  0  0  0  0
    8.7421   -5.1412   16.3650 C   0  0  0  0  0  0  0  0  0  0  0  0
   11.4353   -2.9204   17.8044 C   0  0  0  0  0  0  0  0  0  0  0  0
   11.1529   -4.3028   22.1277 C   0  0  0  0  0  0  0  0  0  0  0  0
   11.1290   -4.8502   19.8052 C   0  0  0  0  0  0  0  0  0  0  0  0
   12.4329   -4.2159   24.4224 C   0  0  0  0  0  0  0  0  0  0  0  0
    3.4740   -9.0387   16.5022 C   0  0  0  0  0  0  0  0  0  0  0  0
    6.8384   -7.9290   17.5282 N   0  0  0  0  0  0  0  0  0  0  0  0
    9.4126   -5.9853   18.4899 C   0  0  0  0  0  0  0  0  0  0  0  0
    4.2064  -10.3242   18.3302 C   0  0  0  0  0  0  0  0  0  0  0  0
    9.6599   -4.1551   16.4796 N   0  0  0  0  0  0  0  0  0  0  0  0
    7.0644   -6.4612   15.7375 N   0  0  0  0  0  0  0  0  0  0  0  0
    5.3549   -9.6322   18.3190 C   0  0  0  0  0  0  0  0  0  0  0  0
   10.3704   -4.9638   18.6510 C   0  0  0  0  0  0  0  0  0  0  0  0
    5.5935   -8.6419   17.4234 C   0  0  0  0  0  0  0  0  0  0  0  0
   13.0726   -4.6648   23.3394 O   0  0  0  0  0  0  0  0  0  0  0  0
    8.5955   -6.0705   17.3996 C   0  0  0  0  0  0  0  0  0  0  0  0
    4.6223   -8.3832   16.5030 C   0  0  0  0  0  0  0  0  0  0  0  0
   12.4690   -5.2624   19.9024 C   0  0  0  0  0  0  0  0  0  0  0  0
    3.2548   -9.9919   17.4189 C   0  0  0  0  0  0  0  0  0  0  0  0
   12.4767   -4.7393   22.1790 C   0  0  0  0  0  0  0  0  0  0  0  0
    7.8593   -5.3772   15.3569 N   0  0  0  0  0  0  0  0  0  0  0  0
    7.4412   -6.9038   16.9283 C   0  0  0  0  0  0  0  0  0  0  0  0
  1 21  4  0
  1 23  4  0
  2  5  1  0
  2 13  4  0
  2 16  4  0
  3  6  4  0
  3  7  4  0
  4 13  4  0
  4 19  4  0
  4 24  4  0
  6 23  4  0
  7 16  1  0
  7 21  4  0
  8 18  1  0
  9 20  4  0
  9 22  4  0
 10 17  1  0
 10 25  1  0
 11 16  4  0
 11 19  4  0
 12 15  4  0
 12 22  4  0
 14 24  4  0
 14 25  4  0
 15 17  4  0
 17 20  4  0
 18 23  1  0
 19 25  4  0
M  END
$$$$

 Created by Python create_sdf_string function

 25 28  0  0  0  0  0  0  0  0999 V2000
   13.1533   -5.2399   21.0682 C   0  0  0  0  0  0  0  0  0  0  0  0
   10.4729   -4.0295   17.6135 C   0  0  0  0  0  0  0  0  0  0  0  0
   10.4789   -4.3641   20.9564 C   0  0  0  0  0  0  0  0  0  0  0  0
    8.7421   -5.1412   16.3650 C   0  0  0  0  0  0  0  0  0  0  0  0
   11.4353   -2.9204   17.8044 C   0  0  0  0  0  0  0  0  0  0  0  0
   11.1529   -4.3028   22.1277 C   0  0  0  0  0  0  0  0  0  0  0  0
   11.1290   -4.8502   19.8052 C   0  0  0  0  0  0  0  0  0  0  0  0
   12.4329   -4.2159   24.4224 C   0  0  0  0  0  0  0  0  0  0  0  0
    3.4740   -9.0387   16.5022 C   0  0  0  0  0  0  0  0  0  0  0  0
    6.8384   -7.9290   17.5282 N   0  0  0  0  0  0  0  0  0  0  0  0
    9.4126   -5.9853   18.4899 C   0  0  0  0  0  0  0  0  0  0  0  0
    4.2064  -10.3242   18.3302 C   0  0  0  0  0  0  0  0  0  0  0  0
    9.6599   -4.1551   16.4796 N   0  0  0  0  0  0  0  0  0  0  0  0
    7.0644   -6.4612   15.7375 N   0  0  0  0  0  0  0  0  0  0  0  0
    5.3549   -9.6322   18.3190 C   0  0  0  0  0  0  0  0  0  0  0  0
   10.3704   -4.9638   18.6510 C   0  0  0  0  0  0  0  0  0  0  0  0
    5.5935   -8.6419   17.4234 C   0  0  0  0  0  0  0  0  0  0  0  0
   13.0726   -4.6648   23.3394 O   0  0  0  0  0  0  0  0  0  0  0  0
    8.5955   -6.0705   17.3996 C   0  0  0  0  0  0  0  0  0  0  0  0
    4.6223   -8.3832   16.5030 C   0  0  0  0  0  0  0  0  0  0  0  0
   12.4690   -5.2624   19.9024 C   0  0  0  0  0  0  0  0  0  0  0  0
    3.2548   -9.9919   17.4189 C   0  0  0  0  0  0  0  0  0  0  0  0
   12.4767   -4.7393   22.1790 C   0  0  0  0  0  0  0  0  0  0  0  0
    7.8593   -5.3772   15.3569 N   0  0  0  0  0  0  0  0  0  0  0  0
    7.4412   -6.9038   16.9283 C   0  0  0  0  0  0  0  0  0  0  0  0
  1 21  4  0
  1 23  4  0
  2  5  1  0
  2 13  4  0
  2 16  4  0
  3  6  4  0
  3  7  4  0
  4 13  4  0
  4 19  4  0
  4 24  4  0
  6 23  4  0
  7 16  1  0
  7 21  4  0
  8 18  1  0
  9 20  4  0
  9 22  4  0
 10 17  1  0
 10 25  1  0
 11 16  4  0
 11 19  4  0
 12 15  4  0
 12 22  4  0
 14 24  4  0
 14 25  4  0
 15 17  4  0
 17 20  4  0
 18 23  1  0
 19 25  4  0
M  END
$$$$

 Created by Python create_sdf_string function

 25 28  0  0  0  0  0  0  0  0999 V2000
   13.1533   -5.2399   21.0682 C   0  0  0  0  0  0  0  0  0  0  0  0
   10.4729   -4.0295   17.6135 C   0  0  0  0  0  0  0  0  0  0  0  0
   10.4789   -4.3641   20.9564 C   0  0  0  0  0  0  0  0  0  0  0  0
    8.7421   -5.1412   16.3650 C   0  0  0  0  0  0  0  0  0  0  0  0
   11.4353   -2.9204   17.8044 C   0  0  0  0  0  0  0  0  0  0  0  0
   11.1529   -4.3028   22.1277 C   0  0  0  0  0  0  0  0  0  0  0  0
   11.1290   -4.8502   19.8052 C   0  0  0  0  0  0  0  0  0  0  0  0
   12.4329   -4.2159   24.4224 C   0  0  0  0  0  0  0  0  0  0  0  0
    3.4740   -9.0387   16.5022 C   0  0  0  0  0  0  0  0  0  0  0  0
    6.8384   -7.9290   17.5282 N   0  0  0  0  0  0  0  0  0  0  0  0
    9.4126   -5.9853   18.4899 C   0  0  0  0  0  0  0  0  0  0  0  0
    4.2064  -10.3242   18.3302 C   0  0  0  0  0  0  0  0  0  0  0  0
    9.6599   -4.1551   16.4796 N   0  0  0  0  0  0  0  0  0  0  0  0
    7.0644   -6.4612   15.7375 N   0  0  0  0  0  0  0  0  0  0  0  0
    5.3549   -9.6322   18.3190 C   0  0  0  0  0  0  0  0  0  0  0  0
   10.3704   -4.9638   18.6510 C   0  0  0  0  0  0  0  0  0  0  0  0
    5.5935   -8.6419   17.4234 C   0  0  0  0  0  0  0  0  0  0  0  0
   13.0726   -4.6648   23.3394 O   0  0  0  0  0  0  0  0  0  0  0  0
    8.5955   -6.0705   17.3996 C   0  0  0  0  0  0  0  0  0  0  0  0
    4.6223   -8.3832   16.5030 C   0  0  0  0  0  0  0  0  0  0  0  0
   12.4690   -5.2624   19.9024 C   0  0  0  0  0  0  0  0  0  0  0  0
    3.2548   -9.9919   17.4189 C   0  0  0  0  0  0  0  0  0  0  0  0
   12.4767   -4.7393   22.1790 C   0  0  0  0  0  0  0  0  0  0  0  0
    7.8593   -5.3772   15.3569 N   0  0  0  0  0  0  0  0  0  0  0  0
    7.4412   -6.9038   16.9283 C   0  0  0  0  0  0  0  0  0  0  0  0
  1 21  4  0
  1 23  4  0
  2  5  1  0
  2 13  4  0
  2 16  4  0
  3  6  4  0
  3  7  4  0
  4 13  4  0
  4 19  4  0
  4 24  4  0
  6 23  4  0
  7 16  1  0
  7 21  4  0
  8 18  1  0
  9 20  4  0
  9 22  4  0
 10 17  1  0
 10 25  1  0
 11 16  4  0
 11 19  4  0
 12 15  4  0
 12 22  4  0
 14 24  4  0
 14 25  4  0
 15 17  4  0
 17 20  4  0
 18 23  1  0
 19 25  4  0
M  END
$$$$

 Created by Python create_sdf_string function

 25 28  0  0  0  0  0  0  0  0999 V2000
   13.1533   -5.2399   21.0682 C   0  0  0  0  0  0  0  0  0  0  0  0
   10.4729   -4.0295   17.6135 C   0  0  0  0  0  0  0  0  0  0  0  0
   10.4789   -4.3641   20.9564 C   0  0  0  0  0  0  0  0  0  0  0  0
    8.7421   -5.1412   16.3650 C   0  0  0  0  0  0  0  0  0  0  0  0
   11.4353   -2.9204   17.8044 C   0  0  0  0  0  0  0  0  0  0  0  0
   11.1529   -4.3028   22.1277 C   0  0  0  0  0  0  0  0  0  0  0  0
   11.1290   -4.8502   19.8052 C   0  0  0  0  0  0  0  0  0  0  0  0
   12.4329   -4.2159   24.4224 C   0  0  0  0  0  0  0  0  0  0  0  0
    3.4740   -9.0387   16.5022 C   0  0  0  0  0  0  0  0  0  0  0  0
    6.8384   -7.9290   17.5282 N   0  0  0  0  0  0  0  0  0  0  0  0
    9.4126   -5.9853   18.4899 C   0  0  0  0  0  0  0  0  0  0  0  0
    4.2064  -10.3242   18.3302 C   0  0  0  0  0  0  0  0  0  0  0  0
    9.6599   -4.1551   16.4796 N   0  0  0  0  0  0  0  0  0  0  0  0
    7.0644   -6.4612   15.7375 N   0  0  0  0  0  0  0  0  0  0  0  0
    5.3549   -9.6322   18.3190 C   0  0  0  0  0  0  0  0  0  0  0  0
   10.3704   -4.9638   18.6510 C   0  0  0  0  0  0  0  0  0  0  0  0
    5.5935   -8.6419   17.4234 C   0  0  0  0  0  0  0  0  0  0  0  0
   13.0726   -4.6648   23.3394 O   0  0  0  0  0  0  0  0  0  0  0  0
    8.5955   -6.0705   17.3996 C   0  0  0  0  0  0  0  0  0  0  0  0
    4.6223   -8.3832   16.5030 C   0  0  0  0  0  0  0  0  0  0  0  0
   12.4690   -5.2624   19.9024 C   0  0  0  0  0  0  0  0  0  0  0  0
    3.2548   -9.9919   17.4189 C   0  0  0  0  0  0  0  0  0  0  0  0
   12.4767   -4.7393   22.1790 C   0  0  0  0  0  0  0  0  0  0  0  0
    7.8593   -5.3772   15.3569 N   0  0  0  0  0  0  0  0  0  0  0  0
    7.4412   -6.9038   16.9283 C   0  0  0  0  0  0  0  0  0  0  0  0
  1 21  4  0
  1 23  4  0
  2  5  1  0
  2 13  4  0
  2 16  4  0
  3  6  4  0
  3  7  4  0
  4 13  4  0
  4 19  4  0
  4 24  4  0
  6 23  4  0
  7 16  1  0
  7 21  4  0
  8 18  1  0
  9 20  4  0
  9 22  4  0
 10 17  1  0
 10 25  1  0
 11 16  4  0
 11 19  4  0
 12 15  4  0
 12 22  4  0
 14 24  4  0
 14 25  4  0
 15 17  4  0
 17 20  4  0
 18 23  1  0
 19 25  4  0
M  END
$$$$

 Created by Python create_sdf_string function

 25 28  0  0  0  0  0  0  0  0999 V2000
   13.1533   -5.2399   21.0682 C   0  0  0  0  0  0  0  0  0  0  0  0
   10.4729   -4.0295   17.6135 C   0  0  0  0  0  0  0  0  0  0  0  0
   10.4789   -4.3641   20.9564 C   0  0  0  0  0  0  0  0  0  0  0  0
    8.7421   -5.1412   16.3650 C   0  0  0  0  0  0  0  0  0  0  0  0
   11.4353   -2.9204   17.8044 C   0  0  0  0  0  0  0  0  0  0  0  0
   11.1529   -4.3028   22.1277 C   0  0  0  0  0  0  0  0  0  0  0  0
   11.1290   -4.8502   19.8052 C   0  0  0  0  0  0  0  0  0  0  0  0
   12.4329   -4.2159   24.4224 C   0  0  0  0  0  0  0  0  0  0  0  0
    3.4740   -9.0387   16.5022 C   0  0  0  0  0  0  0  0  0  0  0  0
    6.8384   -7.9290   17.5282 N   0  0  0  0  0  0  0  0  0  0  0  0
    9.4126   -5.9853   18.4899 C   0  0  0  0  0  0  0  0  0  0  0  0
    4.2064  -10.3242   18.3302 C   0  0  0  0  0  0  0  0  0  0  0  0
    9.6599   -4.1551   16.4796 N   0  0  0  0  0  0  0  0  0  0  0  0
    7.0644   -6.4612   15.7375 N   0  0  0  0  0  0  0  0  0  0  0  0
    5.3549   -9.6322   18.3190 C   0  0  0  0  0  0  0  0  0  0  0  0
   10.3704   -4.9638   18.6510 C   0  0  0  0  0  0  0  0  0  0  0  0
    5.5935   -8.6419   17.4234 C   0  0  0  0  0  0  0  0  0  0  0  0
   13.0726   -4.6648   23.3394 O   0  0  0  0  0  0  0  0  0  0  0  0
    8.5955   -6.0705   17.3996 C   0  0  0  0  0  0  0  0  0  0  0  0
    4.6223   -8.3832   16.5030 C   0  0  0  0  0  0  0  0  0  0  0  0
   12.4690   -5.2624   19.9024 C   0  0  0  0  0  0  0  0  0  0  0  0
    3.2548   -9.9919   17.4189 C   0  0  0  0  0  0  0  0  0  0  0  0
   12.4767   -4.7393   22.1790 C   0  0  0  0  0  0  0  0  0  0  0  0
    7.8593   -5.3772   15.3569 N   0  0  0  0  0  0  0  0  0  0  0  0
    7.4412   -6.9038   16.9283 C   0  0  0  0  0  0  0  0  0  0  0  0
  1 21  4  0
  1 23  4  0
  2  5  1  0
  2 13  4  0
  2 16  4  0
  3  6  4  0
  3  7  4  0
  4 13  4  0
  4 19  4  0
  4 24  4  0
  6 23  4  0
  7 16  1  0
  7 21  4  0
  8 18  1  0
  9 20  4  0
  9 22  4  0
 10 17  1  0
 10 25  1  0
 11 16  4  0
 11 19  4  0
 12 15  4  0
 12 22  4  0
 14 24  4  0
 14 25  4  0
 15 17  4  0
 17 20  4  0
 18 23  1  0
 19 25  4  0
M  END
$$$$

 Created by Python create_sdf_string function

 25 28  0  0  0  0  0  0  0  0999 V2000
   13.1533   -5.2399   21.0682 C   0  0  0  0  0  0  0  0  0  0  0  0
   10.4729   -4.0295   17.6135 C   0  0  0  0  0  0  0  0  0  0  0  0
   10.4789   -4.3641   20.9564 C   0  0  0  0  0  0  0  0  0  0  0  0
    8.7421   -5.1412   16.3650 C   0  0  0  0  0  0  0  0  0  0  0  0
   11.4353   -2.9204   17.8044 C   0  0  0  0  0  0  0  0  0  0  0  0
   11.1529   -4.3028   22.1277 C   0  0  0  0  0  0  0  0  0  0  0  0
   11.1290   -4.8502   19.8052 C   0  0  0  0  0  0  0  0  0  0  0  0
   12.4329   -4.2159   24.4224 C   0  0  0  0  0  0  0  0  0  0  0  0
    3.4740   -9.0387   16.5022 C   0  0  0  0  0  0  0  0  0  0  0  0
    6.8384   -7.9290   17.5282 N   0  0  0  0  0  0  0  0  0  0  0  0
    9.4126   -5.9853   18.4899 C   0  0  0  0  0  0  0  0  0  0  0  0
    4.2064  -10.3242   18.3302 C   0  0  0  0  0  0  0  0  0  0  0  0
    9.6599   -4.1551   16.4796 N   0  0  0  0  0  0  0  0  0  0  0  0
    7.0644   -6.4612   15.7375 N   0  0  0  0  0  0  0  0  0  0  0  0
    5.3549   -9.6322   18.3190 C   0  0  0  0  0  0  0  0  0  0  0  0
   10.3704   -4.9638   18.6510 C   0  0  0  0  0  0  0  0  0  0  0  0
    5.5935   -8.6419   17.4234 C   0  0  0  0  0  0  0  0  0  0  0  0
   13.0726   -4.6648   23.3394 O   0  0  0  0  0  0  0  0  0  0  0  0
    8.5955   -6.0705   17.3996 C   0  0  0  0  0  0  0  0  0  0  0  0
    4.6223   -8.3832   16.5030 C   0  0  0  0  0  0  0  0  0  0  0  0
   12.4690   -5.2624   19.9024 C   0  0  0  0  0  0  0  0  0  0  0  0
    3.2548   -9.9919   17.4189 C   0  0  0  0  0  0  0  0  0  0  0  0
   12.4767   -4.7393   22.1790 C   0  0  0  0  0  0  0  0  0  0  0  0
    7.8593   -5.3772   15.3569 N   0  0  0  0  0  0  0  0  0  0  0  0
    7.4412   -6.9038   16.9283 C   0  0  0  0  0  0  0  0  0  0  0  0
  1 21  4  0
  1 23  4  0
  2  5  1  0
  2 13  4  0
  2 16  4  0
  3  6  4  0
  3  7  4  0
  4 13  4  0
  4 19  4  0
  4 24  4  0
  6 23  4  0
  7 16  1  0
  7 21  4  0
  8 18  1  0
  9 20  4  0
  9 22  4  0
 10 17  1  0
 10 25  1  0
 11 16  4  0
 11 19  4  0
 12 15  4  0
 12 22  4  0
 14 24  4  0
 14 25  4  0
 15 17  4  0
 17 20  4  0
 18 23  1  0
 19 25  4  0
M  END
$$$$

 Created by Python create_sdf_string function

 25 28  0  0  0  0  0  0  0  0999 V2000
   13.1533   -5.2399   21.0682 C   0  0  0  0  0  0  0  0  0  0  0  0
   10.4729   -4.0295   17.6135 C   0  0  0  0  0  0  0  0  0  0  0  0
   10.4789   -4.3641   20.9564 C   0  0  0  0  0  0  0  0  0  0  0  0
    8.7421   -5.1412   16.3650 C   0  0  0  0  0  0  0  0  0  0  0  0
   11.4353   -2.9204   17.8044 C   0  0  0  0  0  0  0  0  0  0  0  0
   11.1529   -4.3028   22.1277 C   0  0  0  0  0  0  0  0  0  0  0  0
   11.1290   -4.8502   19.8052 C   0  0  0  0  0  0  0  0  0  0  0  0
   12.4329   -4.2159   24.4224 C   0  0  0  0  0  0  0  0  0  0  0  0
    3.4740   -9.0387   16.5022 C   0  0  0  0  0  0  0  0  0  0  0  0
    6.8384   -7.9290   17.5282 N   0  0  0  0  0  0  0  0  0  0  0  0
    9.4126   -5.9853   18.4899 C   0  0  0  0  0  0  0  0  0  0  0  0
    4.2064  -10.3242   18.3302 C   0  0  0  0  0  0  0  0  0  0  0  0
    9.6599   -4.1551   16.4796 N   0  0  0  0  0  0  0  0  0  0  0  0
    7.0644   -6.4612   15.7375 N   0  0  0  0  0  0  0  0  0  0  0  0
    5.3549   -9.6322   18.3190 C   0  0  0  0  0  0  0  0  0  0  0  0
   10.3704   -4.9638   18.6510 C   0  0  0  0  0  0  0  0  0  0  0  0
    5.5935   -8.6419   17.4234 C   0  0  0  0  0  0  0  0  0  0  0  0
   13.0726   -4.6648   23.3394 O   0  0  0  0  0  0  0  0  0  0  0  0
    8.5955   -6.0705   17.3996 C   0  0  0  0  0  0  0  0  0  0  0  0
    4.6223   -8.3832   16.5030 C   0  0  0  0  0  0  0  0  0  0  0  0
   12.4690   -5.2624   19.9024 C   0  0  0  0  0  0  0  0  0  0  0  0
    3.2548   -9.9919   17.4189 C   0  0  0  0  0  0  0  0  0  0  0  0
   12.4767   -4.7393   22.1790 C   0  0  0  0  0  0  0  0  0  0  0  0
    7.8593   -5.3772   15.3569 N   0  0  0  0  0  0  0  0  0  0  0  0
    7.4412   -6.9038   16.9283 C   0  0  0  0  0  0  0  0  0  0  0  0
  1 21  4  0
  1 23  4  0
  2  5  1  0
  2 13  4  0
  2 16  4  0
  3  6  4  0
  3  7  4  0
  4 13  4  0
  4 19  4  0
  4 24  4  0
  6 23  4  0
  7 16  1  0
  7 21  4  0
  8 18  1  0
  9 20  4  0
  9 22  4  0
 10 17  1  0
 10 25  1  0
 11 16  4  0
 11 19  4  0
 12 15  4  0
 12 22  4  0
 14 24  4  0
 14 25  4  0
 15 17  4  0
 17 20  4  0
 18 23  1  0
 19 25  4  0
M  END
$$$$

 Created by Python create_sdf_string function

 25 28  0  0  0  0  0  0  0  0999 V2000
   13.1533   -5.2399   21.0682 C   0  0  0  0  0  0  0  0  0  0  0  0
   10.4729   -4.0295   17.6135 C   0  0  0  0  0  0  0  0  0  0  0  0
   10.4789   -4.3641   20.9564 C   0  0  0  0  0  0  0  0  0  0  0  0
    8.7421   -5.1412   16.3650 C   0  0  0  0  0  0  0  0  0  0  0  0
   11.4353   -2.9204   17.8044 C   0  0  0  0  0  0  0  0  0  0  0  0
   11.1529   -4.3028   22.1277 C   0  0  0  0  0  0  0  0  0  0  0  0
   11.1290   -4.8502   19.8052 C   0  0  0  0  0  0  0  0  0  0  0  0
   12.4329   -4.2159   24.4224 C   0  0  0  0  0  0  0  0  0  0  0  0
    3.4740   -9.0387   16.5022 C   0  0  0  0  0  0  0  0  0  0  0  0
    6.8384   -7.9290   17.5282 N   0  0  0  0  0  0  0  0  0  0  0  0
    9.4126   -5.9853   18.4899 C   0  0  0  0  0  0  0  0  0  0  0  0
    4.2064  -10.3242   18.3302 C   0  0  0  0  0  0  0  0  0  0  0  0
    9.6599   -4.1551   16.4796 N   0  0  0  0  0  0  0  0  0  0  0  0
    7.0644   -6.4612   15.7375 N   0  0  0  0  0  0  0  0  0  0  0  0
    5.3549   -9.6322   18.3190 C   0  0  0  0  0  0  0  0  0  0  0  0
   10.3704   -4.9638   18.6510 C   0  0  0  0  0  0  0  0  0  0  0  0
    5.5935   -8.6419   17.4234 C   0  0  0  0  0  0  0  0  0  0  0  0
   13.0726   -4.6648   23.3394 O   0  0  0  0  0  0  0  0  0  0  0  0
    8.5955   -6.0705   17.3996 C   0  0  0  0  0  0  0  0  0  0  0  0
    4.6223   -8.3832   16.5030 C   0  0  0  0  0  0  0  0  0  0  0  0
   12.4690   -5.2624   19.9024 C   0  0  0  0  0  0  0  0  0  0  0  0
    3.2548   -9.9919   17.4189 C   0  0  0  0  0  0  0  0  0  0  0  0
   12.4767   -4.7393   22.1790 C   0  0  0  0  0  0  0  0  0  0  0  0
    7.8593   -5.3772   15.3569 N   0  0  0  0  0  0  0  0  0  0  0  0
    7.4412   -6.9038   16.9283 C   0  0  0  0  0  0  0  0  0  0  0  0
  1 21  4  0
  1 23  4  0
  2  5  1  0
  2 13  4  0
  2 16  4  0
  3  6  4  0
  3  7  4  0
  4 13  4  0
  4 19  4  0
  4 24  4  0
  6 23  4  0
  7 16  1  0
  7 21  4  0
  8 18  1  0
  9 20  4  0
  9 22  4  0
 10 17  1  0
 10 25  1  0
 11 16  4  0
 11 19  4  0
 12 15  4  0
 12 22  4  0
 14 24  4  0
 14 25  4  0
 15 17  4  0
 17 20  4  0
 18 23  1  0
 19 25  4  0
M  END
$$$$

 Created by Python create_sdf_string function

 25 28  0  0  0  0  0  0  0  0999 V2000
   13.1533   -5.2399   21.0682 C   0  0  0  0  0  0  0  0  0  0  0  0
   10.4729   -4.0295   17.6135 C   0  0  0  0  0  0  0  0  0  0  0  0
   10.4789   -4.3641   20.9564 C   0  0  0  0  0  0  0  0  0  0  0  0
    8.7421   -5.1412   16.3650 C   0  0  0  0  0  0  0  0  0  0  0  0
   11.4353   -2.9204   17.8044 C   0  0  0  0  0  0  0  0  0  0  0  0
   11.1529   -4.3028   22.1277 C   0  0  0  0  0  0  0  0  0  0  0  0
   11.1290   -4.8502   19.8052 C   0  0  0  0  0  0  0  0  0  0  0  0
   12.4329   -4.2159   24.4224 C   0  0  0  0  0  0  0  0  0  0  0  0
    3.4740   -9.0387   16.5022 C   0  0  0  0  0  0  0  0  0  0  0  0
    6.8384   -7.9290   17.5282 N   0  0  0  0  0  0  0  0  0  0  0  0
    9.4126   -5.9853   18.4899 C   0  0  0  0  0  0  0  0  0  0  0  0
    4.2064  -10.3242   18.3302 C   0  0  0  0  0  0  0  0  0  0  0  0
    9.6599   -4.1551   16.4796 N   0  0  0  0  0  0  0  0  0  0  0  0
    7.0644   -6.4612   15.7375 N   0  0  0  0  0  0  0  0  0  0  0  0
    5.3549   -9.6322   18.3190 C   0  0  0  0  0  0  0  0  0  0  0  0
   10.3704   -4.9638   18.6510 C   0  0  0  0  0  0  0  0  0  0  0  0
    5.5935   -8.6419   17.4234 C   0  0  0  0  0  0  0  0  0  0  0  0
   13.0726   -4.6648   23.3394 O   0  0  0  0  0  0  0  0  0  0  0  0
    8.5955   -6.0705   17.3996 C   0  0  0  0  0  0  0  0  0  0  0  0
    4.6223   -8.3832   16.5030 C   0  0  0  0  0  0  0  0  0  0  0  0
   12.4690   -5.2624   19.9024 C   0  0  0  0  0  0  0  0  0  0  0  0
    3.2548   -9.9919   17.4189 C   0  0  0  0  0  0  0  0  0  0  0  0
   12.4767   -4.7393   22.1790 C   0  0  0  0  0  0  0  0  0  0  0  0
    7.8593   -5.3772   15.3569 N   0  0  0  0  0  0  0  0  0  0  0  0
    7.4412   -6.9038   16.9283 C   0  0  0  0  0  0  0  0  0  0  0  0
  1 21  4  0
  1 23  4  0
  2  5  1  0
  2 13  4  0
  2 16  4  0
  3  6  4  0
  3  7  4  0
  4 13  4  0
  4 19  4  0
  4 24  4  0
  6 23  4  0
  7 16  1  0
  7 21  4  0
  8 18  1  0
  9 20  4  0
  9 22  4  0
 10 17  1  0
 10 25  1  0
 11 16  4  0
 11 19  4  0
 12 15  4  0
 12 22  4  0
 14 24  4  0
 14 25  4  0
 15 17  4  0
 17 20  4  0
 18 23  1  0
 19 25  4  0
M  END
$$$$

 Created by Python create_sdf_string function

 25 28  0  0  0  0  0  0  0  0999 V2000
   13.1533   -5.2399   21.0682 C   0  0  0  0  0  0  0  0  0  0  0  0
   10.4729   -4.0295   17.6135 C   0  0  0  0  0  0  0  0  0  0  0  0
   10.4789   -4.3641   20.9564 C   0  0  0  0  0  0  0  0  0  0  0  0
    8.7421   -5.1412   16.3650 C   0  0  0  0  0  0  0  0  0  0  0  0
   11.4353   -2.9204   17.8044 C   0  0  0  0  0  0  0  0  0  0  0  0
   11.1529   -4.3028   22.1277 C   0  0  0  0  0  0  0  0  0  0  0  0
   11.1290   -4.8502   19.8052 C   0  0  0  0  0  0  0  0  0  0  0  0
   12.4329   -4.2159   24.4224 C   0  0  0  0  0  0  0  0  0  0  0  0
    3.4740   -9.0387   16.5022 C   0  0  0  0  0  0  0  0  0  0  0  0
    6.8384   -7.9290   17.5282 N   0  0  0  0  0  0  0  0  0  0  0  0
    9.4126   -5.9853   18.4899 C   0  0  0  0  0  0  0  0  0  0  0  0
    4.2064  -10.3242   18.3302 C   0  0  0  0  0  0  0  0  0  0  0  0
    9.6599   -4.1551   16.4796 N   0  0  0  0  0  0  0  0  0  0  0  0
    7.0644   -6.4612   15.7375 N   0  0  0  0  0  0  0  0  0  0  0  0
    5.3549   -9.6322   18.3190 C   0  0  0  0  0  0  0  0  0  0  0  0
   10.3704   -4.9638   18.6510 C   0  0  0  0  0  0  0  0  0  0  0  0
    5.5935   -8.6419   17.4234 C   0  0  0  0  0  0  0  0  0  0  0  0
   13.0726   -4.6648   23.3394 O   0  0  0  0  0  0  0  0  0  0  0  0
    8.5955   -6.0705   17.3996 C   0  0  0  0  0  0  0  0  0  0  0  0
    4.6223   -8.3832   16.5030 C   0  0  0  0  0  0  0  0  0  0  0  0
   12.4690   -5.2624   19.9024 C   0  0  0  0  0  0  0  0  0  0  0  0
    3.2548   -9.9919   17.4189 C   0  0  0  0  0  0  0  0  0  0  0  0
   12.4767   -4.7393   22.1790 C   0  0  0  0  0  0  0  0  0  0  0  0
    7.8593   -5.3772   15.3569 N   0  0  0  0  0  0  0  0  0  0  0  0
    7.4412   -6.9038   16.9283 C   0  0  0  0  0  0  0  0  0  0  0  0
  1 21  4  0
  1 23  4  0
  2  5  1  0
  2 13  4  0
  2 16  4  0
  3  6  4  0
  3  7  4  0
  4 13  4  0
  4 19  4  0
  4 24  4  0
  6 23  4  0
  7 16  1  0
  7 21  4  0
  8 18  1  0
  9 20  4  0
  9 22  4  0
 10 17  1  0
 10 25  1  0
 11 16  4  0
 11 19  4  0
 12 15  4  0
 12 22  4  0
 14 24  4  0
 14 25  4  0
 15 17  4  0
 17 20  4  0
 18 23  1  0
 19 25  4  0
M  END
$$$$

 Created by Python create_sdf_string function

 25 28  0  0  0  0  0  0  0  0999 V2000
   13.1533   -5.2399   21.0682 C   0  0  0  0  0  0  0  0  0  0  0  0
   10.4729   -4.0295   17.6135 C   0  0  0  0  0  0  0  0  0  0  0  0
   10.4789   -4.3641   20.9564 C   0  0  0  0  0  0  0  0  0  0  0  0
    8.7421   -5.1412   16.3650 C   0  0  0  0  0  0  0  0  0  0  0  0
   11.4353   -2.9204   17.8044 C   0  0  0  0  0  0  0  0  0  0  0  0
   11.1529   -4.3028   22.1277 C   0  0  0  0  0  0  0  0  0  0  0  0
   11.1290   -4.8502   19.8052 C   0  0  0  0  0  0  0  0  0  0  0  0
   12.4329   -4.2159   24.4224 C   0  0  0  0  0  0  0  0  0  0  0  0
    3.4740   -9.0387   16.5022 C   0  0  0  0  0  0  0  0  0  0  0  0
    6.8384   -7.9290   17.5282 N   0  0  0  0  0  0  0  0  0  0  0  0
    9.4126   -5.9853   18.4899 C   0  0  0  0  0  0  0  0  0  0  0  0
    4.2064  -10.3242   18.3302 C   0  0  0  0  0  0  0  0  0  0  0  0
    9.6599   -4.1551   16.4796 N   0  0  0  0  0  0  0  0  0  0  0  0
    7.0644   -6.4612   15.7375 N   0  0  0  0  0  0  0  0  0  0  0  0
    5.3549   -9.6322   18.3190 C   0  0  0  0  0  0  0  0  0  0  0  0
   10.3704   -4.9638   18.6510 C   0  0  0  0  0  0  0  0  0  0  0  0
    5.5935   -8.6419   17.4234 C   0  0  0  0  0  0  0  0  0  0  0  0
   13.0726   -4.6648   23.3394 O   0  0  0  0  0  0  0  0  0  0  0  0
    8.5955   -6.0705   17.3996 C   0  0  0  0  0  0  0  0  0  0  0  0
    4.6223   -8.3832   16.5030 C   0  0  0  0  0  0  0  0  0  0  0  0
   12.4690   -5.2624   19.9024 C   0  0  0  0  0  0  0  0  0  0  0  0
    3.2548   -9.9919   17.4189 C   0  0  0  0  0  0  0  0  0  0  0  0
   12.4767   -4.7393   22.1790 C   0  0  0  0  0  0  0  0  0  0  0  0
    7.8593   -5.3772   15.3569 N   0  0  0  0  0  0  0  0  0  0  0  0
    7.4412   -6.9038   16.9283 C   0  0  0  0  0  0  0  0  0  0  0  0
  1 21  4  0
  1 23  4  0
  2  5  1  0
  2 13  4  0
  2 16  4  0
  3  6  4  0
  3  7  4  0
  4 13  4  0
  4 19  4  0
  4 24  4  0
  6 23  4  0
  7 16  1  0
  7 21  4  0
  8 18  1  0
  9 20  4  0
  9 22  4  0
 10 17  1  0
 10 25  1  0
 11 16  4  0
 11 19  4  0
 12 15  4  0
 12 22  4  0
 14 24  4  0
 14 25  4  0
 15 17  4  0
 17 20  4  0
 18 23  1  0
 19 25  4  0
M  END
$$$$

 Created by Python create_sdf_string function

 25 28  0  0  0  0  0  0  0  0999 V2000
   13.1533   -5.2399   21.0682 C   0  0  0  0  0  0  0  0  0  0  0  0
   10.4729   -4.0295   17.6135 C   0  0  0  0  0  0  0  0  0  0  0  0
   10.4789   -4.3641   20.9564 C   0  0  0  0  0  0  0  0  0  0  0  0
    8.7421   -5.1412   16.3650 C   0  0  0  0  0  0  0  0  0  0  0  0
   11.4353   -2.9204   17.8044 C   0  0  0  0  0  0  0  0  0  0  0  0
   11.1529   -4.3028   22.1277 C   0  0  0  0  0  0  0  0  0  0  0  0
   11.1290   -4.8502   19.8052 C   0  0  0  0  0  0  0  0  0  0  0  0
   12.4329   -4.2159   24.4224 C   0  0  0  0  0  0  0  0  0  0  0  0
    3.4740   -9.0387   16.5022 C   0  0  0  0  0  0  0  0  0  0  0  0
    6.8384   -7.9290   17.5282 N   0  0  0  0  0  0  0  0  0  0  0  0
    9.4126   -5.9853   18.4899 C   0  0  0  0  0  0  0  0  0  0  0  0
    4.2064  -10.3242   18.3302 C   0  0  0  0  0  0  0  0  0  0  0  0
    9.6599   -4.1551   16.4796 N   0  0  0  0  0  0  0  0  0  0  0  0
    7.0644   -6.4612   15.7375 N   0  0  0  0  0  0  0  0  0  0  0  0
    5.3549   -9.6322   18.3190 C   0  0  0  0  0  0  0  0  0  0  0  0
   10.3704   -4.9638   18.6510 C   0  0  0  0  0  0  0  0  0  0  0  0
    5.5935   -8.6419   17.4234 C   0  0  0  0  0  0  0  0  0  0  0  0
   13.0726   -4.6648   23.3394 O   0  0  0  0  0  0  0  0  0  0  0  0
    8.5955   -6.0705   17.3996 C   0  0  0  0  0  0  0  0  0  0  0  0
    4.6223   -8.3832   16.5030 C   0  0  0  0  0  0  0  0  0  0  0  0
   12.4690   -5.2624   19.9024 C   0  0  0  0  0  0  0  0  0  0  0  0
    3.2548   -9.9919   17.4189 C   0  0  0  0  0  0  0  0  0  0  0  0
   12.4767   -4.7393   22.1790 C   0  0  0  0  0  0  0  0  0  0  0  0
    7.8593   -5.3772   15.3569 N   0  0  0  0  0  0  0  0  0  0  0  0
    7.4412   -6.9038   16.9283 C   0  0  0  0  0  0  0  0  0  0  0  0
  1 21  4  0
  1 23  4  0
  2  5  1  0
  2 13  4  0
  2 16  4  0
  3  6  4  0
  3  7  4  0
  4 13  4  0
  4 19  4  0
  4 24  4  0
  6 23  4  0
  7 16  1  0
  7 21  4  0
  8 18  1  0
  9 20  4  0
  9 22  4  0
 10 17  1  0
 10 25  1  0
 11 16  4  0
 11 19  4  0
 12 15  4  0
 12 22  4  0
 14 24  4  0
 14 25  4  0
 15 17  4  0
 17 20  4  0
 18 23  1  0
 19 25  4  0
M  END
$$$$

 Created by Python create_sdf_string function

 25 28  0  0  0  0  0  0  0  0999 V2000
   13.1533   -5.2399   21.0682 C   0  0  0  0  0  0  0  0  0  0  0  0
   10.4729   -4.0295   17.6135 C   0  0  0  0  0  0  0  0  0  0  0  0
   10.4789   -4.3641   20.9564 C   0  0  0  0  0  0  0  0  0  0  0  0
    8.7421   -5.1412   16.3650 C   0  0  0  0  0  0  0  0  0  0  0  0
   11.4353   -2.9204   17.8044 C   0  0  0  0  0  0  0  0  0  0  0  0
   11.1529   -4.3028   22.1277 C   0  0  0  0  0  0  0  0  0  0  0  0
   11.1290   -4.8502   19.8052 C   0  0  0  0  0  0  0  0  0  0  0  0
   12.4329   -4.2159   24.4224 C   0  0  0  0  0  0  0  0  0  0  0  0
    3.4740   -9.0387   16.5022 C   0  0  0  0  0  0  0  0  0  0  0  0
    6.8384   -7.9290   17.5282 N   0  0  0  0  0  0  0  0  0  0  0  0
    9.4126   -5.9853   18.4899 C   0  0  0  0  0  0  0  0  0  0  0  0
    4.2064  -10.3242   18.3302 C   0  0  0  0  0  0  0  0  0  0  0  0
    9.6599   -4.1551   16.4796 N   0  0  0  0  0  0  0  0  0  0  0  0
    7.0644   -6.4612   15.7375 N   0  0  0  0  0  0  0  0  0  0  0  0
    5.3549   -9.6322   18.3190 C   0  0  0  0  0  0  0  0  0  0  0  0
   10.3704   -4.9638   18.6510 C   0  0  0  0  0  0  0  0  0  0  0  0
    5.5935   -8.6419   17.4234 C   0  0  0  0  0  0  0  0  0  0  0  0
   13.0726   -4.6648   23.3394 O   0  0  0  0  0  0  0  0  0  0  0  0
    8.5955   -6.0705   17.3996 C   0  0  0  0  0  0  0  0  0  0  0  0
    4.6223   -8.3832   16.5030 C   0  0  0  0  0  0  0  0  0  0  0  0
   12.4690   -5.2624   19.9024 C   0  0  0  0  0  0  0  0  0  0  0  0
    3.2548   -9.9919   17.4189 C   0  0  0  0  0  0  0  0  0  0  0  0
   12.4767   -4.7393   22.1790 C   0  0  0  0  0  0  0  0  0  0  0  0
    7.8593   -5.3772   15.3569 N   0  0  0  0  0  0  0  0  0  0  0  0
    7.4412   -6.9038   16.9283 C   0  0  0  0  0  0  0  0  0  0  0  0
  1 21  4  0
  1 23  4  0
  2  5  1  0
  2 13  4  0
  2 16  4  0
  3  6  4  0
  3  7  4  0
  4 13  4  0
  4 19  4  0
  4 24  4  0
  6 23  4  0
  7 16  1  0
  7 21  4  0
  8 18  1  0
  9 20  4  0
  9 22  4  0
 10 17  1  0
 10 25  1  0
 11 16  4  0
 11 19  4  0
 12 15  4  0
 12 22  4  0
 14 24  4  0
 14 25  4  0
 15 17  4  0
 17 20  4  0
 18 23  1  0
 19 25  4  0
M  END
$$$$

 Created by Python create_sdf_string function

 25 28  0  0  0  0  0  0  0  0999 V2000
   13.1533   -5.2399   21.0682 C   0  0  0  0  0  0  0  0  0  0  0  0
   10.4729   -4.0295   17.6135 C   0  0  0  0  0  0  0  0  0  0  0  0
   10.4789   -4.3641   20.9564 C   0  0  0  0  0  0  0  0  0  0  0  0
    8.7421   -5.1412   16.3650 C   0  0  0  0  0  0  0  0  0  0  0  0
   11.4353   -2.9204   17.8044 C   0  0  0  0  0  0  0  0  0  0  0  0
   11.1529   -4.3028   22.1277 C   0  0  0  0  0  0  0  0  0  0  0  0
   11.1290   -4.8502   19.8052 C   0  0  0  0  0  0  0  0  0  0  0  0
   12.4329   -4.2159   24.4224 C   0  0  0  0  0  0  0  0  0  0  0  0
    3.4740   -9.0387   16.5022 C   0  0  0  0  0  0  0  0  0  0  0  0
    6.8384   -7.9290   17.5282 N   0  0  0  0  0  0  0  0  0  0  0  0
    9.4126   -5.9853   18.4899 C   0  0  0  0  0  0  0  0  0  0  0  0
    4.2064  -10.3242   18.3302 C   0  0  0  0  0  0  0  0  0  0  0  0
    9.6599   -4.1551   16.4796 N   0  0  0  0  0  0  0  0  0  0  0  0
    7.0644   -6.4612   15.7375 N   0  0  0  0  0  0  0  0  0  0  0  0
    5.3549   -9.6322   18.3190 C   0  0  0  0  0  0  0  0  0  0  0  0
   10.3704   -4.9638   18.6510 C   0  0  0  0  0  0  0  0  0  0  0  0
    5.5935   -8.6419   17.4234 C   0  0  0  0  0  0  0  0  0  0  0  0
   13.0726   -4.6648   23.3394 O   0  0  0  0  0  0  0  0  0  0  0  0
    8.5955   -6.0705   17.3996 C   0  0  0  0  0  0  0  0  0  0  0  0
    4.6223   -8.3832   16.5030 C   0  0  0  0  0  0  0  0  0  0  0  0
   12.4690   -5.2624   19.9024 C   0  0  0  0  0  0  0  0  0  0  0  0
    3.2548   -9.9919   17.4189 C   0  0  0  0  0  0  0  0  0  0  0  0
   12.4767   -4.7393   22.1790 C   0  0  0  0  0  0  0  0  0  0  0  0
    7.8593   -5.3772   15.3569 N   0  0  0  0  0  0  0  0  0  0  0  0
    7.4412   -6.9038   16.9283 C   0  0  0  0  0  0  0  0  0  0  0  0
  1 21  4  0
  1 23  4  0
  2  5  1  0
  2 13  4  0
  2 16  4  0
  3  6  4  0
  3  7  4  0
  4 13  4  0
  4 19  4  0
  4 24  4  0
  6 23  4  0
  7 16  1  0
  7 21  4  0
  8 18  1  0
  9 20  4  0
  9 22  4  0
 10 17  1  0
 10 25  1  0
 11 16  4  0
 11 19  4  0
 12 15  4  0
 12 22  4  0
 14 24  4  0
 14 25  4  0
 15 17  4  0
 17 20  4  0
 18 23  1  0
 19 25  4  0
M  END
$$$$

 Created by Python create_sdf_string function

 25 28  0  0  0  0  0  0  0  0999 V2000
   13.1533   -5.2399   21.0682 C   0  0  0  0  0  0  0  0  0  0  0  0
   10.4729   -4.0295   17.6135 C   0  0  0  0  0  0  0  0  0  0  0  0
   10.4789   -4.3641   20.9564 C   0  0  0  0  0  0  0  0  0  0  0  0
    8.7421   -5.1412   16.3650 C   0  0  0  0  0  0  0  0  0  0  0  0
   11.4353   -2.9204   17.8044 C   0  0  0  0  0  0  0  0  0  0  0  0
   11.1529   -4.3028   22.1277 C   0  0  0  0  0  0  0  0  0  0  0  0
   11.1290   -4.8502   19.8052 C   0  0  0  0  0  0  0  0  0  0  0  0
   12.4329   -4.2159   24.4224 C   0  0  0  0  0  0  0  0  0  0  0  0
    3.4740   -9.0387   16.5022 C   0  0  0  0  0  0  0  0  0  0  0  0
    6.8384   -7.9290   17.5282 N   0  0  0  0  0  0  0  0  0  0  0  0
    9.4126   -5.9853   18.4899 C   0  0  0  0  0  0  0  0  0  0  0  0
    4.2064  -10.3242   18.3302 C   0  0  0  0  0  0  0  0  0  0  0  0
    9.6599   -4.1551   16.4796 N   0  0  0  0  0  0  0  0  0  0  0  0
    7.0644   -6.4612   15.7375 N   0  0  0  0  0  0  0  0  0  0  0  0
    5.3549   -9.6322   18.3190 C   0  0  0  0  0  0  0  0  0  0  0  0
   10.3704   -4.9638   18.6510 C   0  0  0  0  0  0  0  0  0  0  0  0
    5.5935   -8.6419   17.4234 C   0  0  0  0  0  0  0  0  0  0  0  0
   13.0726   -4.6648   23.3394 O   0  0  0  0  0  0  0  0  0  0  0  0
    8.5955   -6.0705   17.3996 C   0  0  0  0  0  0  0  0  0  0  0  0
    4.6223   -8.3832   16.5030 C   0  0  0  0  0  0  0  0  0  0  0  0
   12.4690   -5.2624   19.9024 C   0  0  0  0  0  0  0  0  0  0  0  0
    3.2548   -9.9919   17.4189 C   0  0  0  0  0  0  0  0  0  0  0  0
   12.4767   -4.7393   22.1790 C   0  0  0  0  0  0  0  0  0  0  0  0
    7.8593   -5.3772   15.3569 N   0  0  0  0  0  0  0  0  0  0  0  0
    7.4412   -6.9038   16.9283 C   0  0  0  0  0  0  0  0  0  0  0  0
  1 21  4  0
  1 23  4  0
  2  5  1  0
  2 13  4  0
  2 16  4  0
  3  6  4  0
  3  7  4  0
  4 13  4  0
  4 19  4  0
  4 24  4  0
  6 23  4  0
  7 16  1  0
  7 21  4  0
  8 18  1  0
  9 20  4  0
  9 22  4  0
 10 17  1  0
 10 25  1  0
 11 16  4  0
 11 19  4  0
 12 15  4  0
 12 22  4  0
 14 24  4  0
 14 25  4  0
 15 17  4  0
 17 20  4  0
 18 23  1  0
 19 25  4  0
M  END
$$$$

 Created by Python create_sdf_string function

 25 28  0  0  0  0  0  0  0  0999 V2000
   13.1533   -5.2399   21.0682 C   0  0  0  0  0  0  0  0  0  0  0  0
   10.4729   -4.0295   17.6135 C   0  0  0  0  0  0  0  0  0  0  0  0
   10.4789   -4.3641   20.9564 C   0  0  0  0  0  0  0  0  0  0  0  0
    8.7421   -5.1412   16.3650 C   0  0  0  0  0  0  0  0  0  0  0  0
   11.4353   -2.9204   17.8044 C   0  0  0  0  0  0  0  0  0  0  0  0
   11.1529   -4.3028   22.1277 C   0  0  0  0  0  0  0  0  0  0  0  0
   11.1290   -4.8502   19.8052 C   0  0  0  0  0  0  0  0  0  0  0  0
   12.4329   -4.2159   24.4224 C   0  0  0  0  0  0  0  0  0  0  0  0
    3.4740   -9.0387   16.5022 C   0  0  0  0  0  0  0  0  0  0  0  0
    6.8384   -7.9290   17.5282 N   0  0  0  0  0  0  0  0  0  0  0  0
    9.4126   -5.9853   18.4899 C   0  0  0  0  0  0  0  0  0  0  0  0
    4.2064  -10.3242   18.3302 C   0  0  0  0  0  0  0  0  0  0  0  0
    9.6599   -4.1551   16.4796 N   0  0  0  0  0  0  0  0  0  0  0  0
    7.0644   -6.4612   15.7375 N   0  0  0  0  0  0  0  0  0  0  0  0
    5.3549   -9.6322   18.3190 C   0  0  0  0  0  0  0  0  0  0  0  0
   10.3704   -4.9638   18.6510 C   0  0  0  0  0  0  0  0  0  0  0  0
    5.5935   -8.6419   17.4234 C   0  0  0  0  0  0  0  0  0  0  0  0
   13.0726   -4.6648   23.3394 O   0  0  0  0  0  0  0  0  0  0  0  0
    8.5955   -6.0705   17.3996 C   0  0  0  0  0  0  0  0  0  0  0  0
    4.6223   -8.3832   16.5030 C   0  0  0  0  0  0  0  0  0  0  0  0
   12.4690   -5.2624   19.9024 C   0  0  0  0  0  0  0  0  0  0  0  0
    3.2548   -9.9919   17.4189 C   0  0  0  0  0  0  0  0  0  0  0  0
   12.4767   -4.7393   22.1790 C   0  0  0  0  0  0  0  0  0  0  0  0
    7.8593   -5.3772   15.3569 N   0  0  0  0  0  0  0  0  0  0  0  0
    7.4412   -6.9038   16.9283 C   0  0  0  0  0  0  0  0  0  0  0  0
  1 21  4  0
  1 23  4  0
  2  5  1  0
  2 13  4  0
  2 16  4  0
  3  6  4  0
  3  7  4  0
  4 13  4  0
  4 19  4  0
  4 24  4  0
  6 23  4  0
  7 16  1  0
  7 21  4  0
  8 18  1  0
  9 20  4  0
  9 22  4  0
 10 17  1  0
 10 25  1  0
 11 16  4  0
 11 19  4  0
 12 15  4  0
 12 22  4  0
 14 24  4  0
 14 25  4  0
 15 17  4  0
 17 20  4  0
 18 23  1  0
 19 25  4  0
M  END
$$$$

 Created by Python create_sdf_string function

 25 28  0  0  0  0  0  0  0  0999 V2000
   13.1533   -5.2399   21.0682 C   0  0  0  0  0  0  0  0  0  0  0  0
   10.4729   -4.0295   17.6135 C   0  0  0  0  0  0  0  0  0  0  0  0
   10.4789   -4.3641   20.9564 C   0  0  0  0  0  0  0  0  0  0  0  0
    8.7421   -5.1412   16.3650 C   0  0  0  0  0  0  0  0  0  0  0  0
   11.4353   -2.9204   17.8044 C   0  0  0  0  0  0  0  0  0  0  0  0
   11.1529   -4.3028   22.1277 C   0  0  0  0  0  0  0  0  0  0  0  0
   11.1290   -4.8502   19.8052 C   0  0  0  0  0  0  0  0  0  0  0  0
   12.4329   -4.2159   24.4224 C   0  0  0  0  0  0  0  0  0  0  0  0
    3.4740   -9.0387   16.5022 C   0  0  0  0  0  0  0  0  0  0  0  0
    6.8384   -7.9290   17.5282 N   0  0  0  0  0  0  0  0  0  0  0  0
    9.4126   -5.9853   18.4899 C   0  0  0  0  0  0  0  0  0  0  0  0
    4.2064  -10.3242   18.3302 C   0  0  0  0  0  0  0  0  0  0  0  0
    9.6599   -4.1551   16.4796 N   0  0  0  0  0  0  0  0  0  0  0  0
    7.0644   -6.4612   15.7375 N   0  0  0  0  0  0  0  0  0  0  0  0
    5.3549   -9.6322   18.3190 C   0  0  0  0  0  0  0  0  0  0  0  0
   10.3704   -4.9638   18.6510 C   0  0  0  0  0  0  0  0  0  0  0  0
    5.5935   -8.6419   17.4234 C   0  0  0  0  0  0  0  0  0  0  0  0
   13.0726   -4.6648   23.3394 O   0  0  0  0  0  0  0  0  0  0  0  0
    8.5955   -6.0705   17.3996 C   0  0  0  0  0  0  0  0  0  0  0  0
    4.6223   -8.3832   16.5030 C   0  0  0  0  0  0  0  0  0  0  0  0
   12.4690   -5.2624   19.9024 C   0  0  0  0  0  0  0  0  0  0  0  0
    3.2548   -9.9919   17.4189 C   0  0  0  0  0  0  0  0  0  0  0  0
   12.4767   -4.7393   22.1790 C   0  0  0  0  0  0  0  0  0  0  0  0
    7.8593   -5.3772   15.3569 N   0  0  0  0  0  0  0  0  0  0  0  0
    7.4412   -6.9038   16.9283 C   0  0  0  0  0  0  0  0  0  0  0  0
  1 21  4  0
  1 23  4  0
  2  5  1  0
  2 13  4  0
  2 16  4  0
  3  6  4  0
  3  7  4  0
  4 13  4  0
  4 19  4  0
  4 24  4  0
  6 23  4  0
  7 16  1  0
  7 21  4  0
  8 18  1  0
  9 20  4  0
  9 22  4  0
 10 17  1  0
 10 25  1  0
 11 16  4  0
 11 19  4  0
 12 15  4  0
 12 22  4  0
 14 24  4  0
 14 25  4  0
 15 17  4  0
 17 20  4  0
 18 23  1  0
 19 25  4  0
M  END
$$$$

 Created by Python create_sdf_string function

 25 28  0  0  0  0  0  0  0  0999 V2000
   13.1533   -5.2399   21.0682 C   0  0  0  0  0  0  0  0  0  0  0  0
   10.4729   -4.0295   17.6135 C   0  0  0  0  0  0  0  0  0  0  0  0
   10.4789   -4.3641   20.9564 C   0  0  0  0  0  0  0  0  0  0  0  0
    8.7421   -5.1412   16.3650 C   0  0  0  0  0  0  0  0  0  0  0  0
   11.4353   -2.9204   17.8044 C   0  0  0  0  0  0  0  0  0  0  0  0
   11.1529   -4.3028   22.1277 C   0  0  0  0  0  0  0  0  0  0  0  0
   11.1290   -4.8502   19.8052 C   0  0  0  0  0  0  0  0  0  0  0  0
   12.4329   -4.2159   24.4224 C   0  0  0  0  0  0  0  0  0  0  0  0
    3.4740   -9.0387   16.5022 C   0  0  0  0  0  0  0  0  0  0  0  0
    6.8384   -7.9290   17.5282 N   0  0  0  0  0  0  0  0  0  0  0  0
    9.4126   -5.9853   18.4899 C   0  0  0  0  0  0  0  0  0  0  0  0
    4.2064  -10.3242   18.3302 C   0  0  0  0  0  0  0  0  0  0  0  0
    9.6599   -4.1551   16.4796 N   0  0  0  0  0  0  0  0  0  0  0  0
    7.0644   -6.4612   15.7375 N   0  0  0  0  0  0  0  0  0  0  0  0
    5.3549   -9.6322   18.3190 C   0  0  0  0  0  0  0  0  0  0  0  0
   10.3704   -4.9638   18.6510 C   0  0  0  0  0  0  0  0  0  0  0  0
    5.5935   -8.6419   17.4234 C   0  0  0  0  0  0  0  0  0  0  0  0
   13.0726   -4.6648   23.3394 O   0  0  0  0  0  0  0  0  0  0  0  0
    8.5955   -6.0705   17.3996 C   0  0  0  0  0  0  0  0  0  0  0  0
    4.6223   -8.3832   16.5030 C   0  0  0  0  0  0  0  0  0  0  0  0
   12.4690   -5.2624   19.9024 C   0  0  0  0  0  0  0  0  0  0  0  0
    3.2548   -9.9919   17.4189 C   0  0  0  0  0  0  0  0  0  0  0  0
   12.4767   -4.7393   22.1790 C   0  0  0  0  0  0  0  0  0  0  0  0
    7.8593   -5.3772   15.3569 N   0  0  0  0  0  0  0  0  0  0  0  0
    7.4412   -6.9038   16.9283 C   0  0  0  0  0  0  0  0  0  0  0  0
  1 21  4  0
  1 23  4  0
  2  5  1  0
  2 13  4  0
  2 16  4  0
  3  6  4  0
  3  7  4  0
  4 13  4  0
  4 19  4  0
  4 24  4  0
  6 23  4  0
  7 16  1  0
  7 21  4  0
  8 18  1  0
  9 20  4  0
  9 22  4  0
 10 17  1  0
 10 25  1  0
 11 16  4  0
 11 19  4  0
 12 15  4  0
 12 22  4  0
 14 24  4  0
 14 25  4  0
 15 17  4  0
 17 20  4  0
 18 23  1  0
 19 25  4  0
M  END
$$$$

 Created by Python create_sdf_string function

 25 28  0  0  0  0  0  0  0  0999 V2000
   13.1533   -5.2399   21.0682 C   0  0  0  0  0  0  0  0  0  0  0  0
   10.4729   -4.0295   17.6135 C   0  0  0  0  0  0  0  0  0  0  0  0
   10.4789   -4.3641   20.9564 C   0  0  0  0  0  0  0  0  0  0  0  0
    8.7421   -5.1412   16.3650 C   0  0  0  0  0  0  0  0  0  0  0  0
   11.4353   -2.9204   17.8044 C   0  0  0  0  0  0  0  0  0  0  0  0
   11.1529   -4.3028   22.1277 C   0  0  0  0  0  0  0  0  0  0  0  0
   11.1290   -4.8502   19.8052 C   0  0  0  0  0  0  0  0  0  0  0  0
   12.4329   -4.2159   24.4224 C   0  0  0  0  0  0  0  0  0  0  0  0
    3.4740   -9.0387   16.5022 C   0  0  0  0  0  0  0  0  0  0  0  0
    6.8384   -7.9290   17.5282 N   0  0  0  0  0  0  0  0  0  0  0  0
    9.4126   -5.9853   18.4899 C   0  0  0  0  0  0  0  0  0  0  0  0
    4.2064  -10.3242   18.3302 C   0  0  0  0  0  0  0  0  0  0  0  0
    9.6599   -4.1551   16.4796 N   0  0  0  0  0  0  0  0  0  0  0  0
    7.0644   -6.4612   15.7375 N   0  0  0  0  0  0  0  0  0  0  0  0
    5.3549   -9.6322   18.3190 C   0  0  0  0  0  0  0  0  0  0  0  0
   10.3704   -4.9638   18.6510 C   0  0  0  0  0  0  0  0  0  0  0  0
    5.5935   -8.6419   17.4234 C   0  0  0  0  0  0  0  0  0  0  0  0
   13.0726   -4.6648   23.3394 O   0  0  0  0  0  0  0  0  0  0  0  0
    8.5955   -6.0705   17.3996 C   0  0  0  0  0  0  0  0  0  0  0  0
    4.6223   -8.3832   16.5030 C   0  0  0  0  0  0  0  0  0  0  0  0
   12.4690   -5.2624   19.9024 C   0  0  0  0  0  0  0  0  0  0  0  0
    3.2548   -9.9919   17.4189 C   0  0  0  0  0  0  0  0  0  0  0  0
   12.4767   -4.7393   22.1790 C   0  0  0  0  0  0  0  0  0  0  0  0
    7.8593   -5.3772   15.3569 N   0  0  0  0  0  0  0  0  0  0  0  0
    7.4412   -6.9038   16.9283 C   0  0  0  0  0  0  0  0  0  0  0  0
  1 21  4  0
  1 23  4  0
  2  5  1  0
  2 13  4  0
  2 16  4  0
  3  6  4  0
  3  7  4  0
  4 13  4  0
  4 19  4  0
  4 24  4  0
  6 23  4  0
  7 16  1  0
  7 21  4  0
  8 18  1  0
  9 20  4  0
  9 22  4  0
 10 17  1  0
 10 25  1  0
 11 16  4  0
 11 19  4  0
 12 15  4  0
 12 22  4  0
 14 24  4  0
 14 25  4  0
 15 17  4  0
 17 20  4  0
 18 23  1  0
 19 25  4  0
M  END
$$$$

 Created by Python create_sdf_string function

 25 28  0  0  0  0  0  0  0  0999 V2000
   13.1533   -5.2399   21.0682 C   0  0  0  0  0  0  0  0  0  0  0  0
   10.4729   -4.0295   17.6135 C   0  0  0  0  0  0  0  0  0  0  0  0
   10.4789   -4.3641   20.9564 C   0  0  0  0  0  0  0  0  0  0  0  0
    8.7421   -5.1412   16.3650 C   0  0  0  0  0  0  0  0  0  0  0  0
   11.4353   -2.9204   17.8044 C   0  0  0  0  0  0  0  0  0  0  0  0
   11.1529   -4.3028   22.1277 C   0  0  0  0  0  0  0  0  0  0  0  0
   11.1290   -4.8502   19.8052 C   0  0  0  0  0  0  0  0  0  0  0  0
   12.4329   -4.2159   24.4224 C   0  0  0  0  0  0  0  0  0  0  0  0
    3.4740   -9.0387   16.5022 C   0  0  0  0  0  0  0  0  0  0  0  0
    6.8384   -7.9290   17.5282 N   0  0  0  0  0  0  0  0  0  0  0  0
    9.4126   -5.9853   18.4899 C   0  0  0  0  0  0  0  0  0  0  0  0
    4.2064  -10.3242   18.3302 C   0  0  0  0  0  0  0  0  0  0  0  0
    9.6599   -4.1551   16.4796 N   0  0  0  0  0  0  0  0  0  0  0  0
    7.0644   -6.4612   15.7375 N   0  0  0  0  0  0  0  0  0  0  0  0
    5.3549   -9.6322   18.3190 C   0  0  0  0  0  0  0  0  0  0  0  0
   10.3704   -4.9638   18.6510 C   0  0  0  0  0  0  0  0  0  0  0  0
    5.5935   -8.6419   17.4234 C   0  0  0  0  0  0  0  0  0  0  0  0
   13.0726   -4.6648   23.3394 O   0  0  0  0  0  0  0  0  0  0  0  0
    8.5955   -6.0705   17.3996 C   0  0  0  0  0  0  0  0  0  0  0  0
    4.6223   -8.3832   16.5030 C   0  0  0  0  0  0  0  0  0  0  0  0
   12.4690   -5.2624   19.9024 C   0  0  0  0  0  0  0  0  0  0  0  0
    3.2548   -9.9919   17.4189 C   0  0  0  0  0  0  0  0  0  0  0  0
   12.4767   -4.7393   22.1790 C   0  0  0  0  0  0  0  0  0  0  0  0
    7.8593   -5.3772   15.3569 N   0  0  0  0  0  0  0  0  0  0  0  0
    7.4412   -6.9038   16.9283 C   0  0  0  0  0  0  0  0  0  0  0  0
  1 21  4  0
  1 23  4  0
  2  5  1  0
  2 13  4  0
  2 16  4  0
  3  6  4  0
  3  7  4  0
  4 13  4  0
  4 19  4  0
  4 24  4  0
  6 23  4  0
  7 16  1  0
  7 21  4  0
  8 18  1  0
  9 20  4  0
  9 22  4  0
 10 17  1  0
 10 25  1  0
 11 16  4  0
 11 19  4  0
 12 15  4  0
 12 22  4  0
 14 24  4  0
 14 25  4  0
 15 17  4  0
 17 20  4  0
 18 23  1  0
 19 25  4  0
M  END
$$$$

 Created by Python create_sdf_string function

 25 28  0  0  0  0  0  0  0  0999 V2000
   13.1533   -5.2399   21.0682 C   0  0  0  0  0  0  0  0  0  0  0  0
   10.4729   -4.0295   17.6135 C   0  0  0  0  0  0  0  0  0  0  0  0
   10.4789   -4.3641   20.9564 C   0  0  0  0  0  0  0  0  0  0  0  0
    8.7421   -5.1412   16.3650 C   0  0  0  0  0  0  0  0  0  0  0  0
   11.4353   -2.9204   17.8044 C   0  0  0  0  0  0  0  0  0  0  0  0
   11.1529   -4.3028   22.1277 C   0  0  0  0  0  0  0  0  0  0  0  0
   11.1290   -4.8502   19.8052 C   0  0  0  0  0  0  0  0  0  0  0  0
   12.4329   -4.2159   24.4224 C   0  0  0  0  0  0  0  0  0  0  0  0
    3.4740   -9.0387   16.5022 C   0  0  0  0  0  0  0  0  0  0  0  0
    6.8384   -7.9290   17.5282 N   0  0  0  0  0  0  0  0  0  0  0  0
    9.4126   -5.9853   18.4899 C   0  0  0  0  0  0  0  0  0  0  0  0
    4.2064  -10.3242   18.3302 C   0  0  0  0  0  0  0  0  0  0  0  0
    9.6599   -4.1551   16.4796 N   0  0  0  0  0  0  0  0  0  0  0  0
    7.0644   -6.4612   15.7375 N   0  0  0  0  0  0  0  0  0  0  0  0
    5.3549   -9.6322   18.3190 C   0  0  0  0  0  0  0  0  0  0  0  0
   10.3704   -4.9638   18.6510 C   0  0  0  0  0  0  0  0  0  0  0  0
    5.5935   -8.6419   17.4234 C   0  0  0  0  0  0  0  0  0  0  0  0
   13.0726   -4.6648   23.3394 O   0  0  0  0  0  0  0  0  0  0  0  0
    8.5955   -6.0705   17.3996 C   0  0  0  0  0  0  0  0  0  0  0  0
    4.6223   -8.3832   16.5030 C   0  0  0  0  0  0  0  0  0  0  0  0
   12.4690   -5.2624   19.9024 C   0  0  0  0  0  0  0  0  0  0  0  0
    3.2548   -9.9919   17.4189 C   0  0  0  0  0  0  0  0  0  0  0  0
   12.4767   -4.7393   22.1790 C   0  0  0  0  0  0  0  0  0  0  0  0
    7.8593   -5.3772   15.3569 N   0  0  0  0  0  0  0  0  0  0  0  0
    7.4412   -6.9038   16.9283 C   0  0  0  0  0  0  0  0  0  0  0  0
  1 21  4  0
  1 23  4  0
  2  5  1  0
  2 13  4  0
  2 16  4  0
  3  6  4  0
  3  7  4  0
  4 13  4  0
  4 19  4  0
  4 24  4  0
  6 23  4  0
  7 16  1  0
  7 21  4  0
  8 18  1  0
  9 20  4  0
  9 22  4  0
 10 17  1  0
 10 25  1  0
 11 16  4  0
 11 19  4  0
 12 15  4  0
 12 22  4  0
 14 24  4  0
 14 25  4  0
 15 17  4  0
 17 20  4  0
 18 23  1  0
 19 25  4  0
M  END
$$$$

 Created by Python create_sdf_string function

 25 28  0  0  0  0  0  0  0  0999 V2000
   13.1533   -5.2399   21.0682 C   0  0  0  0  0  0  0  0  0  0  0  0
   10.4729   -4.0295   17.6135 C   0  0  0  0  0  0  0  0  0  0  0  0
   10.4789   -4.3641   20.9564 C   0  0  0  0  0  0  0  0  0  0  0  0
    8.7421   -5.1412   16.3650 C   0  0  0  0  0  0  0  0  0  0  0  0
   11.4353   -2.9204   17.8044 C   0  0  0  0  0  0  0  0  0  0  0  0
   11.1529   -4.3028   22.1277 C   0  0  0  0  0  0  0  0  0  0  0  0
   11.1290   -4.8502   19.8052 C   0  0  0  0  0  0  0  0  0  0  0  0
   12.4329   -4.2159   24.4224 C   0  0  0  0  0  0  0  0  0  0  0  0
    3.4740   -9.0387   16.5022 C   0  0  0  0  0  0  0  0  0  0  0  0
    6.8384   -7.9290   17.5282 N   0  0  0  0  0  0  0  0  0  0  0  0
    9.4126   -5.9853   18.4899 C   0  0  0  0  0  0  0  0  0  0  0  0
    4.2064  -10.3242   18.3302 C   0  0  0  0  0  0  0  0  0  0  0  0
    9.6599   -4.1551   16.4796 N   0  0  0  0  0  0  0  0  0  0  0  0
    7.0644   -6.4612   15.7375 N   0  0  0  0  0  0  0  0  0  0  0  0
    5.3549   -9.6322   18.3190 C   0  0  0  0  0  0  0  0  0  0  0  0
   10.3704   -4.9638   18.6510 C   0  0  0  0  0  0  0  0  0  0  0  0
    5.5935   -8.6419   17.4234 C   0  0  0  0  0  0  0  0  0  0  0  0
   13.0726   -4.6648   23.3394 O   0  0  0  0  0  0  0  0  0  0  0  0
    8.5955   -6.0705   17.3996 C   0  0  0  0  0  0  0  0  0  0  0  0
    4.6223   -8.3832   16.5030 C   0  0  0  0  0  0  0  0  0  0  0  0
   12.4690   -5.2624   19.9024 C   0  0  0  0  0  0  0  0  0  0  0  0
    3.2548   -9.9919   17.4189 C   0  0  0  0  0  0  0  0  0  0  0  0
   12.4767   -4.7393   22.1790 C   0  0  0  0  0  0  0  0  0  0  0  0
    7.8593   -5.3772   15.3569 N   0  0  0  0  0  0  0  0  0  0  0  0
    7.4412   -6.9038   16.9283 C   0  0  0  0  0  0  0  0  0  0  0  0
  1 21  4  0
  1 23  4  0
  2  5  1  0
  2 13  4  0
  2 16  4  0
  3  6  4  0
  3  7  4  0
  4 13  4  0
  4 19  4  0
  4 24  4  0
  6 23  4  0
  7 16  1  0
  7 21  4  0
  8 18  1  0
  9 20  4  0
  9 22  4  0
 10 17  1  0
 10 25  1  0
 11 16  4  0
 11 19  4  0
 12 15  4  0
 12 22  4  0
 14 24  4  0
 14 25  4  0
 15 17  4  0
 17 20  4  0
 18 23  1  0
 19 25  4  0
M  END
$$$$

 Created by Python create_sdf_string function

 25 28  0  0  0  0  0  0  0  0999 V2000
   13.1533   -5.2399   21.0682 C   0  0  0  0  0  0  0  0  0  0  0  0
   10.4729   -4.0295   17.6135 C   0  0  0  0  0  0  0  0  0  0  0  0
   10.4789   -4.3641   20.9564 C   0  0  0  0  0  0  0  0  0  0  0  0
    8.7421   -5.1412   16.3650 C   0  0  0  0  0  0  0  0  0  0  0  0
   11.4353   -2.9204   17.8044 C   0  0  0  0  0  0  0  0  0  0  0  0
   11.1529   -4.3028   22.1277 C   0  0  0  0  0  0  0  0  0  0  0  0
   11.1290   -4.8502   19.8052 C   0  0  0  0  0  0  0  0  0  0  0  0
   12.4329   -4.2159   24.4224 C   0  0  0  0  0  0  0  0  0  0  0  0
    3.4740   -9.0387   16.5022 C   0  0  0  0  0  0  0  0  0  0  0  0
    6.8384   -7.9290   17.5282 N   0  0  0  0  0  0  0  0  0  0  0  0
    9.4126   -5.9853   18.4899 C   0  0  0  0  0  0  0  0  0  0  0  0
    4.2064  -10.3242   18.3302 C   0  0  0  0  0  0  0  0  0  0  0  0
    9.6599   -4.1551   16.4796 N   0  0  0  0  0  0  0  0  0  0  0  0
    7.0644   -6.4612   15.7375 N   0  0  0  0  0  0  0  0  0  0  0  0
    5.3549   -9.6322   18.3190 C   0  0  0  0  0  0  0  0  0  0  0  0
   10.3704   -4.9638   18.6510 C   0  0  0  0  0  0  0  0  0  0  0  0
    5.5935   -8.6419   17.4234 C   0  0  0  0  0  0  0  0  0  0  0  0
   13.0726   -4.6648   23.3394 O   0  0  0  0  0  0  0  0  0  0  0  0
    8.5955   -6.0705   17.3996 C   0  0  0  0  0  0  0  0  0  0  0  0
    4.6223   -8.3832   16.5030 C   0  0  0  0  0  0  0  0  0  0  0  0
   12.4690   -5.2624   19.9024 C   0  0  0  0  0  0  0  0  0  0  0  0
    3.2548   -9.9919   17.4189 C   0  0  0  0  0  0  0  0  0  0  0  0
   12.4767   -4.7393   22.1790 C   0  0  0  0  0  0  0  0  0  0  0  0
    7.8593   -5.3772   15.3569 N   0  0  0  0  0  0  0  0  0  0  0  0
    7.4412   -6.9038   16.9283 C   0  0  0  0  0  0  0  0  0  0  0  0
  1 21  4  0
  1 23  4  0
  2  5  1  0
  2 13  4  0
  2 16  4  0
  3  6  4  0
  3  7  4  0
  4 13  4  0
  4 19  4  0
  4 24  4  0
  6 23  4  0
  7 16  1  0
  7 21  4  0
  8 18  1  0
  9 20  4  0
  9 22  4  0
 10 17  1  0
 10 25  1  0
 11 16  4  0
 11 19  4  0
 12 15  4  0
 12 22  4  0
 14 24  4  0
 14 25  4  0
 15 17  4  0
 17 20  4  0
 18 23  1  0
 19 25  4  0
M  END
$$$$

 Created by Python create_sdf_string function

 25 28  0  0  0  0  0  0  0  0999 V2000
   13.1533   -5.2399   21.0682 C   0  0  0  0  0  0  0  0  0  0  0  0
   10.4729   -4.0295   17.6135 C   0  0  0  0  0  0  0  0  0  0  0  0
   10.4789   -4.3641   20.9564 C   0  0  0  0  0  0  0  0  0  0  0  0
    8.7421   -5.1412   16.3650 C   0  0  0  0  0  0  0  0  0  0  0  0
   11.4353   -2.9204   17.8044 C   0  0  0  0  0  0  0  0  0  0  0  0
   11.1529   -4.3028   22.1277 C   0  0  0  0  0  0  0  0  0  0  0  0
   11.1290   -4.8502   19.8052 C   0  0  0  0  0  0  0  0  0  0  0  0
   12.4329   -4.2159   24.4224 C   0  0  0  0  0  0  0  0  0  0  0  0
    3.4740   -9.0387   16.5022 C   0  0  0  0  0  0  0  0  0  0  0  0
    6.8384   -7.9290   17.5282 N   0  0  0  0  0  0  0  0  0  0  0  0
    9.4126   -5.9853   18.4899 C   0  0  0  0  0  0  0  0  0  0  0  0
    4.2064  -10.3242   18.3302 C   0  0  0  0  0  0  0  0  0  0  0  0
    9.6599   -4.1551   16.4796 N   0  0  0  0  0  0  0  0  0  0  0  0
    7.0644   -6.4612   15.7375 N   0  0  0  0  0  0  0  0  0  0  0  0
    5.3549   -9.6322   18.3190 C   0  0  0  0  0  0  0  0  0  0  0  0
   10.3704   -4.9638   18.6510 C   0  0  0  0  0  0  0  0  0  0  0  0
    5.5935   -8.6419   17.4234 C   0  0  0  0  0  0  0  0  0  0  0  0
   13.0726   -4.6648   23.3394 O   0  0  0  0  0  0  0  0  0  0  0  0
    8.5955   -6.0705   17.3996 C   0  0  0  0  0  0  0  0  0  0  0  0
    4.6223   -8.3832   16.5030 C   0  0  0  0  0  0  0  0  0  0  0  0
   12.4690   -5.2624   19.9024 C   0  0  0  0  0  0  0  0  0  0  0  0
    3.2548   -9.9919   17.4189 C   0  0  0  0  0  0  0  0  0  0  0  0
   12.4767   -4.7393   22.1790 C   0  0  0  0  0  0  0  0  0  0  0  0
    7.8593   -5.3772   15.3569 N   0  0  0  0  0  0  0  0  0  0  0  0
    7.4412   -6.9038   16.9283 C   0  0  0  0  0  0  0  0  0  0  0  0
  1 21  4  0
  1 23  4  0
  2  5  1  0
  2 13  4  0
  2 16  4  0
  3  6  4  0
  3  7  4  0
  4 13  4  0
  4 19  4  0
  4 24  4  0
  6 23  4  0
  7 16  1  0
  7 21  4  0
  8 18  1  0
  9 20  4  0
  9 22  4  0
 10 17  1  0
 10 25  1  0
 11 16  4  0
 11 19  4  0
 12 15  4  0
 12 22  4  0
 14 24  4  0
 14 25  4  0
 15 17  4  0
 17 20  4  0
 18 23  1  0
 19 25  4  0
M  END
$$$$

 Created by Python create_sdf_string function

 25 28  0  0  0  0  0  0  0  0999 V2000
   13.1533   -5.2399   21.0682 C   0  0  0  0  0  0  0  0  0  0  0  0
   10.4729   -4.0295   17.6135 C   0  0  0  0  0  0  0  0  0  0  0  0
   10.4789   -4.3641   20.9564 C   0  0  0  0  0  0  0  0  0  0  0  0
    8.7421   -5.1412   16.3650 C   0  0  0  0  0  0  0  0  0  0  0  0
   11.4353   -2.9204   17.8044 C   0  0  0  0  0  0  0  0  0  0  0  0
   11.1529   -4.3028   22.1277 C   0  0  0  0  0  0  0  0  0  0  0  0
   11.1290   -4.8502   19.8052 C   0  0  0  0  0  0  0  0  0  0  0  0
   12.4329   -4.2159   24.4224 C   0  0  0  0  0  0  0  0  0  0  0  0
    3.4740   -9.0387   16.5022 C   0  0  0  0  0  0  0  0  0  0  0  0
    6.8384   -7.9290   17.5282 N   0  0  0  0  0  0  0  0  0  0  0  0
    9.4126   -5.9853   18.4899 C   0  0  0  0  0  0  0  0  0  0  0  0
    4.2064  -10.3242   18.3302 C   0  0  0  0  0  0  0  0  0  0  0  0
    9.6599   -4.1551   16.4796 N   0  0  0  0  0  0  0  0  0  0  0  0
    7.0644   -6.4612   15.7375 N   0  0  0  0  0  0  0  0  0  0  0  0
    5.3549   -9.6322   18.3190 C   0  0  0  0  0  0  0  0  0  0  0  0
   10.3704   -4.9638   18.6510 C   0  0  0  0  0  0  0  0  0  0  0  0
    5.5935   -8.6419   17.4234 C   0  0  0  0  0  0  0  0  0  0  0  0
   13.0726   -4.6648   23.3394 O   0  0  0  0  0  0  0  0  0  0  0  0
    8.5955   -6.0705   17.3996 C   0  0  0  0  0  0  0  0  0  0  0  0
    4.6223   -8.3832   16.5030 C   0  0  0  0  0  0  0  0  0  0  0  0
   12.4690   -5.2624   19.9024 C   0  0  0  0  0  0  0  0  0  0  0  0
    3.2548   -9.9919   17.4189 C   0  0  0  0  0  0  0  0  0  0  0  0
   12.4767   -4.7393   22.1790 C   0  0  0  0  0  0  0  0  0  0  0  0
    7.8593   -5.3772   15.3569 N   0  0  0  0  0  0  0  0  0  0  0  0
    7.4412   -6.9038   16.9283 C   0  0  0  0  0  0  0  0  0  0  0  0
  1 21  4  0
  1 23  4  0
  2  5  1  0
  2 13  4  0
  2 16  4  0
  3  6  4  0
  3  7  4  0
  4 13  4  0
  4 19  4  0
  4 24  4  0
  6 23  4  0
  7 16  1  0
  7 21  4  0
  8 18  1  0
  9 20  4  0
  9 22  4  0
 10 17  1  0
 10 25  1  0
 11 16  4  0
 11 19  4  0
 12 15  4  0
 12 22  4  0
 14 24  4  0
 14 25  4  0
 15 17  4  0
 17 20  4  0
 18 23  1  0
 19 25  4  0
M  END
$$$$

 Created by Python create_sdf_string function

 25 28  0  0  0  0  0  0  0  0999 V2000
   13.1533   -5.2399   21.0682 C   0  0  0  0  0  0  0  0  0  0  0  0
   10.4729   -4.0295   17.6135 C   0  0  0  0  0  0  0  0  0  0  0  0
   10.4789   -4.3641   20.9564 C   0  0  0  0  0  0  0  0  0  0  0  0
    8.7421   -5.1412   16.3650 C   0  0  0  0  0  0  0  0  0  0  0  0
   11.4353   -2.9204   17.8044 C   0  0  0  0  0  0  0  0  0  0  0  0
   11.1529   -4.3028   22.1277 C   0  0  0  0  0  0  0  0  0  0  0  0
   11.1290   -4.8502   19.8052 C   0  0  0  0  0  0  0  0  0  0  0  0
   12.4329   -4.2159   24.4224 C   0  0  0  0  0  0  0  0  0  0  0  0
    3.4740   -9.0387   16.5022 C   0  0  0  0  0  0  0  0  0  0  0  0
    6.8384   -7.9290   17.5282 N   0  0  0  0  0  0  0  0  0  0  0  0
    9.4126   -5.9853   18.4899 C   0  0  0  0  0  0  0  0  0  0  0  0
    4.2064  -10.3242   18.3302 C   0  0  0  0  0  0  0  0  0  0  0  0
    9.6599   -4.1551   16.4796 N   0  0  0  0  0  0  0  0  0  0  0  0
    7.0644   -6.4612   15.7375 N   0  0  0  0  0  0  0  0  0  0  0  0
    5.3549   -9.6322   18.3190 C   0  0  0  0  0  0  0  0  0  0  0  0
   10.3704   -4.9638   18.6510 C   0  0  0  0  0  0  0  0  0  0  0  0
    5.5935   -8.6419   17.4234 C   0  0  0  0  0  0  0  0  0  0  0  0
   13.0726   -4.6648   23.3394 O   0  0  0  0  0  0  0  0  0  0  0  0
    8.5955   -6.0705   17.3996 C   0  0  0  0  0  0  0  0  0  0  0  0
    4.6223   -8.3832   16.5030 C   0  0  0  0  0  0  0  0  0  0  0  0
   12.4690   -5.2624   19.9024 C   0  0  0  0  0  0  0  0  0  0  0  0
    3.2548   -9.9919   17.4189 C   0  0  0  0  0  0  0  0  0  0  0  0
   12.4767   -4.7393   22.1790 C   0  0  0  0  0  0  0  0  0  0  0  0
    7.8593   -5.3772   15.3569 N   0  0  0  0  0  0  0  0  0  0  0  0
    7.4412   -6.9038   16.9283 C   0  0  0  0  0  0  0  0  0  0  0  0
  1 21  4  0
  1 23  4  0
  2  5  1  0
  2 13  4  0
  2 16  4  0
  3  6  4  0
  3  7  4  0
  4 13  4  0
  4 19  4  0
  4 24  4  0
  6 23  4  0
  7 16  1  0
  7 21  4  0
  8 18  1  0
  9 20  4  0
  9 22  4  0
 10 17  1  0
 10 25  1  0
 11 16  4  0
 11 19  4  0
 12 15  4  0
 12 22  4  0
 14 24  4  0
 14 25  4  0
 15 17  4  0
 17 20  4  0
 18 23  1  0
 19 25  4  0
M  END
$$$$

 Created by Python create_sdf_string function

 25 28  0  0  0  0  0  0  0  0999 V2000
   13.1533   -5.2399   21.0682 C   0  0  0  0  0  0  0  0  0  0  0  0
   10.4729   -4.0295   17.6135 C   0  0  0  0  0  0  0  0  0  0  0  0
   10.4789   -4.3641   20.9564 C   0  0  0  0  0  0  0  0  0  0  0  0
    8.7421   -5.1412   16.3650 C   0  0  0  0  0  0  0  0  0  0  0  0
   11.4353   -2.9204   17.8044 C   0  0  0  0  0  0  0  0  0  0  0  0
   11.1529   -4.3028   22.1277 C   0  0  0  0  0  0  0  0  0  0  0  0
   11.1290   -4.8502   19.8052 C   0  0  0  0  0  0  0  0  0  0  0  0
   12.4329   -4.2159   24.4224 C   0  0  0  0  0  0  0  0  0  0  0  0
    3.4740   -9.0387   16.5022 C   0  0  0  0  0  0  0  0  0  0  0  0
    6.8384   -7.9290   17.5282 N   0  0  0  0  0  0  0  0  0  0  0  0
    9.4126   -5.9853   18.4899 C   0  0  0  0  0  0  0  0  0  0  0  0
    4.2064  -10.3242   18.3302 C   0  0  0  0  0  0  0  0  0  0  0  0
    9.6599   -4.1551   16.4796 N   0  0  0  0  0  0  0  0  0  0  0  0
    7.0644   -6.4612   15.7375 N   0  0  0  0  0  0  0  0  0  0  0  0
    5.3549   -9.6322   18.3190 C   0  0  0  0  0  0  0  0  0  0  0  0
   10.3704   -4.9638   18.6510 C   0  0  0  0  0  0  0  0  0  0  0  0
    5.5935   -8.6419   17.4234 C   0  0  0  0  0  0  0  0  0  0  0  0
   13.0726   -4.6648   23.3394 O   0  0  0  0  0  0  0  0  0  0  0  0
    8.5955   -6.0705   17.3996 C   0  0  0  0  0  0  0  0  0  0  0  0
    4.6223   -8.3832   16.5030 C   0  0  0  0  0  0  0  0  0  0  0  0
   12.4690   -5.2624   19.9024 C   0  0  0  0  0  0  0  0  0  0  0  0
    3.2548   -9.9919   17.4189 C   0  0  0  0  0  0  0  0  0  0  0  0
   12.4767   -4.7393   22.1790 C   0  0  0  0  0  0  0  0  0  0  0  0
    7.8593   -5.3772   15.3569 N   0  0  0  0  0  0  0  0  0  0  0  0
    7.4412   -6.9038   16.9283 C   0  0  0  0  0  0  0  0  0  0  0  0
  1 21  4  0
  1 23  4  0
  2  5  1  0
  2 13  4  0
  2 16  4  0
  3  6  4  0
  3  7  4  0
  4 13  4  0
  4 19  4  0
  4 24  4  0
  6 23  4  0
  7 16  1  0
  7 21  4  0
  8 18  1  0
  9 20  4  0
  9 22  4  0
 10 17  1  0
 10 25  1  0
 11 16  4  0
 11 19  4  0
 12 15  4  0
 12 22  4  0
 14 24  4  0
 14 25  4  0
 15 17  4  0
 17 20  4  0
 18 23  1  0
 19 25  4  0
M  END
$$$$

 Created by Python create_sdf_string function

 25 28  0  0  0  0  0  0  0  0999 V2000
   13.1533   -5.2399   21.0682 C   0  0  0  0  0  0  0  0  0  0  0  0
   10.4729   -4.0295   17.6135 C   0  0  0  0  0  0  0  0  0  0  0  0
   10.4789   -4.3641   20.9564 C   0  0  0  0  0  0  0  0  0  0  0  0
    8.7421   -5.1412   16.3650 C   0  0  0  0  0  0  0  0  0  0  0  0
   11.4353   -2.9204   17.8044 C   0  0  0  0  0  0  0  0  0  0  0  0
   11.1529   -4.3028   22.1277 C   0  0  0  0  0  0  0  0  0  0  0  0
   11.1290   -4.8502   19.8052 C   0  0  0  0  0  0  0  0  0  0  0  0
   12.4329   -4.2159   24.4224 C   0  0  0  0  0  0  0  0  0  0  0  0
    3.4740   -9.0387   16.5022 C   0  0  0  0  0  0  0  0  0  0  0  0
    6.8384   -7.9290   17.5282 N   0  0  0  0  0  0  0  0  0  0  0  0
    9.4126   -5.9853   18.4899 C   0  0  0  0  0  0  0  0  0  0  0  0
    4.2064  -10.3242   18.3302 C   0  0  0  0  0  0  0  0  0  0  0  0
    9.6599   -4.1551   16.4796 N   0  0  0  0  0  0  0  0  0  0  0  0
    7.0644   -6.4612   15.7375 N   0  0  0  0  0  0  0  0  0  0  0  0
    5.3549   -9.6322   18.3190 C   0  0  0  0  0  0  0  0  0  0  0  0
   10.3704   -4.9638   18.6510 C   0  0  0  0  0  0  0  0  0  0  0  0
    5.5935   -8.6419   17.4234 C   0  0  0  0  0  0  0  0  0  0  0  0
   13.0726   -4.6648   23.3394 O   0  0  0  0  0  0  0  0  0  0  0  0
    8.5955   -6.0705   17.3996 C   0  0  0  0  0  0  0  0  0  0  0  0
    4.6223   -8.3832   16.5030 C   0  0  0  0  0  0  0  0  0  0  0  0
   12.4690   -5.2624   19.9024 C   0  0  0  0  0  0  0  0  0  0  0  0
    3.2548   -9.9919   17.4189 C   0  0  0  0  0  0  0  0  0  0  0  0
   12.4767   -4.7393   22.1790 C   0  0  0  0  0  0  0  0  0  0  0  0
    7.8593   -5.3772   15.3569 N   0  0  0  0  0  0  0  0  0  0  0  0
    7.4412   -6.9038   16.9283 C   0  0  0  0  0  0  0  0  0  0  0  0
  1 21  4  0
  1 23  4  0
  2  5  1  0
  2 13  4  0
  2 16  4  0
  3  6  4  0
  3  7  4  0
  4 13  4  0
  4 19  4  0
  4 24  4  0
  6 23  4  0
  7 16  1  0
  7 21  4  0
  8 18  1  0
  9 20  4  0
  9 22  4  0
 10 17  1  0
 10 25  1  0
 11 16  4  0
 11 19  4  0
 12 15  4  0
 12 22  4  0
 14 24  4  0
 14 25  4  0
 15 17  4  0
 17 20  4  0
 18 23  1  0
 19 25  4  0
M  END
$$$$

 Created by Python create_sdf_string function

 25 28  0  0  0  0  0  0  0  0999 V2000
   13.1533   -5.2399   21.0682 C   0  0  0  0  0  0  0  0  0  0  0  0
   10.4729   -4.0295   17.6135 C   0  0  0  0  0  0  0  0  0  0  0  0
   10.4789   -4.3641   20.9564 C   0  0  0  0  0  0  0  0  0  0  0  0
    8.7421   -5.1412   16.3650 C   0  0  0  0  0  0  0  0  0  0  0  0
   11.4353   -2.9204   17.8044 C   0  0  0  0  0  0  0  0  0  0  0  0
   11.1529   -4.3028   22.1277 C   0  0  0  0  0  0  0  0  0  0  0  0
   11.1290   -4.8502   19.8052 C   0  0  0  0  0  0  0  0  0  0  0  0
   12.4329   -4.2159   24.4224 C   0  0  0  0  0  0  0  0  0  0  0  0
    3.4740   -9.0387   16.5022 C   0  0  0  0  0  0  0  0  0  0  0  0
    6.8384   -7.9290   17.5282 N   0  0  0  0  0  0  0  0  0  0  0  0
    9.4126   -5.9853   18.4899 C   0  0  0  0  0  0  0  0  0  0  0  0
    4.2064  -10.3242   18.3302 C   0  0  0  0  0  0  0  0  0  0  0  0
    9.6599   -4.1551   16.4796 N   0  0  0  0  0  0  0  0  0  0  0  0
    7.0644   -6.4612   15.7375 N   0  0  0  0  0  0  0  0  0  0  0  0
    5.3549   -9.6322   18.3190 C   0  0  0  0  0  0  0  0  0  0  0  0
   10.3704   -4.9638   18.6510 C   0  0  0  0  0  0  0  0  0  0  0  0
    5.5935   -8.6419   17.4234 C   0  0  0  0  0  0  0  0  0  0  0  0
   13.0726   -4.6648   23.3394 O   0  0  0  0  0  0  0  0  0  0  0  0
    8.5955   -6.0705   17.3996 C   0  0  0  0  0  0  0  0  0  0  0  0
    4.6223   -8.3832   16.5030 C   0  0  0  0  0  0  0  0  0  0  0  0
   12.4690   -5.2624   19.9024 C   0  0  0  0  0  0  0  0  0  0  0  0
    3.2548   -9.9919   17.4189 C   0  0  0  0  0  0  0  0  0  0  0  0
   12.4767   -4.7393   22.1790 C   0  0  0  0  0  0  0  0  0  0  0  0
    7.8593   -5.3772   15.3569 N   0  0  0  0  0  0  0  0  0  0  0  0
    7.4412   -6.9038   16.9283 C   0  0  0  0  0  0  0  0  0  0  0  0
  1 21  4  0
  1 23  4  0
  2  5  1  0
  2 13  4  0
  2 16  4  0
  3  6  4  0
  3  7  4  0
  4 13  4  0
  4 19  4  0
  4 24  4  0
  6 23  4  0
  7 16  1  0
  7 21  4  0
  8 18  1  0
  9 20  4  0
  9 22  4  0
 10 17  1  0
 10 25  1  0
 11 16  4  0
 11 19  4  0
 12 15  4  0
 12 22  4  0
 14 24  4  0
 14 25  4  0
 15 17  4  0
 17 20  4  0
 18 23  1  0
 19 25  4  0
M  END
$$$$

 Created by Python create_sdf_string function

 25 28  0  0  0  0  0  0  0  0999 V2000
   13.1533   -5.2399   21.0682 C   0  0  0  0  0  0  0  0  0  0  0  0
   10.4729   -4.0295   17.6135 C   0  0  0  0  0  0  0  0  0  0  0  0
   10.4789   -4.3641   20.9564 C   0  0  0  0  0  0  0  0  0  0  0  0
    8.7421   -5.1412   16.3650 C   0  0  0  0  0  0  0  0  0  0  0  0
   11.4353   -2.9204   17.8044 C   0  0  0  0  0  0  0  0  0  0  0  0
   11.1529   -4.3028   22.1277 C   0  0  0  0  0  0  0  0  0  0  0  0
   11.1290   -4.8502   19.8052 C   0  0  0  0  0  0  0  0  0  0  0  0
   12.4329   -4.2159   24.4224 C   0  0  0  0  0  0  0  0  0  0  0  0
    3.4740   -9.0387   16.5022 C   0  0  0  0  0  0  0  0  0  0  0  0
    6.8384   -7.9290   17.5282 N   0  0  0  0  0  0  0  0  0  0  0  0
    9.4126   -5.9853   18.4899 C   0  0  0  0  0  0  0  0  0  0  0  0
    4.2064  -10.3242   18.3302 C   0  0  0  0  0  0  0  0  0  0  0  0
    9.6599   -4.1551   16.4796 N   0  0  0  0  0  0  0  0  0  0  0  0
    7.0644   -6.4612   15.7375 N   0  0  0  0  0  0  0  0  0  0  0  0
    5.3549   -9.6322   18.3190 C   0  0  0  0  0  0  0  0  0  0  0  0
   10.3704   -4.9638   18.6510 C   0  0  0  0  0  0  0  0  0  0  0  0
    5.5935   -8.6419   17.4234 C   0  0  0  0  0  0  0  0  0  0  0  0
   13.0726   -4.6648   23.3394 O   0  0  0  0  0  0  0  0  0  0  0  0
    8.5955   -6.0705   17.3996 C   0  0  0  0  0  0  0  0  0  0  0  0
    4.6223   -8.3832   16.5030 C   0  0  0  0  0  0  0  0  0  0  0  0
   12.4690   -5.2624   19.9024 C   0  0  0  0  0  0  0  0  0  0  0  0
    3.2548   -9.9919   17.4189 C   0  0  0  0  0  0  0  0  0  0  0  0
   12.4767   -4.7393   22.1790 C   0  0  0  0  0  0  0  0  0  0  0  0
    7.8593   -5.3772   15.3569 N   0  0  0  0  0  0  0  0  0  0  0  0
    7.4412   -6.9038   16.9283 C   0  0  0  0  0  0  0  0  0  0  0  0
  1 21  4  0
  1 23  4  0
  2  5  1  0
  2 13  4  0
  2 16  4  0
  3  6  4  0
  3  7  4  0
  4 13  4  0
  4 19  4  0
  4 24  4  0
  6 23  4  0
  7 16  1  0
  7 21  4  0
  8 18  1  0
  9 20  4  0
  9 22  4  0
 10 17  1  0
 10 25  1  0
 11 16  4  0
 11 19  4  0
 12 15  4  0
 12 22  4  0
 14 24  4  0
 14 25  4  0
 15 17  4  0
 17 20  4  0
 18 23  1  0
 19 25  4  0
M  END
$$$$

 Created by Python create_sdf_string function

 25 28  0  0  0  0  0  0  0  0999 V2000
   13.1533   -5.2399   21.0682 C   0  0  0  0  0  0  0  0  0  0  0  0
   10.4729   -4.0295   17.6135 C   0  0  0  0  0  0  0  0  0  0  0  0
   10.4789   -4.3641   20.9564 C   0  0  0  0  0  0  0  0  0  0  0  0
    8.7421   -5.1412   16.3650 C   0  0  0  0  0  0  0  0  0  0  0  0
   11.4353   -2.9204   17.8044 C   0  0  0  0  0  0  0  0  0  0  0  0
   11.1529   -4.3028   22.1277 C   0  0  0  0  0  0  0  0  0  0  0  0
   11.1290   -4.8502   19.8052 C   0  0  0  0  0  0  0  0  0  0  0  0
   12.4329   -4.2159   24.4224 C   0  0  0  0  0  0  0  0  0  0  0  0
    3.4740   -9.0387   16.5022 C   0  0  0  0  0  0  0  0  0  0  0  0
    6.8384   -7.9290   17.5282 N   0  0  0  0  0  0  0  0  0  0  0  0
    9.4126   -5.9853   18.4899 C   0  0  0  0  0  0  0  0  0  0  0  0
    4.2064  -10.3242   18.3302 C   0  0  0  0  0  0  0  0  0  0  0  0
    9.6599   -4.1551   16.4796 N   0  0  0  0  0  0  0  0  0  0  0  0
    7.0644   -6.4612   15.7375 N   0  0  0  0  0  0  0  0  0  0  0  0
    5.3549   -9.6322   18.3190 C   0  0  0  0  0  0  0  0  0  0  0  0
   10.3704   -4.9638   18.6510 C   0  0  0  0  0  0  0  0  0  0  0  0
    5.5935   -8.6419   17.4234 C   0  0  0  0  0  0  0  0  0  0  0  0
   13.0726   -4.6648   23.3394 O   0  0  0  0  0  0  0  0  0  0  0  0
    8.5955   -6.0705   17.3996 C   0  0  0  0  0  0  0  0  0  0  0  0
    4.6223   -8.3832   16.5030 C   0  0  0  0  0  0  0  0  0  0  0  0
   12.4690   -5.2624   19.9024 C   0  0  0  0  0  0  0  0  0  0  0  0
    3.2548   -9.9919   17.4189 C   0  0  0  0  0  0  0  0  0  0  0  0
   12.4767   -4.7393   22.1790 C   0  0  0  0  0  0  0  0  0  0  0  0
    7.8593   -5.3772   15.3569 N   0  0  0  0  0  0  0  0  0  0  0  0
    7.4412   -6.9038   16.9283 C   0  0  0  0  0  0  0  0  0  0  0  0
  1 21  4  0
  1 23  4  0
  2  5  1  0
  2 13  4  0
  2 16  4  0
  3  6  4  0
  3  7  4  0
  4 13  4  0
  4 19  4  0
  4 24  4  0
  6 23  4  0
  7 16  1  0
  7 21  4  0
  8 18  1  0
  9 20  4  0
  9 22  4  0
 10 17  1  0
 10 25  1  0
 11 16  4  0
 11 19  4  0
 12 15  4  0
 12 22  4  0
 14 24  4  0
 14 25  4  0
 15 17  4  0
 17 20  4  0
 18 23  1  0
 19 25  4  0
M  END
$$$$

 Created by Python create_sdf_string function

 25 28  0  0  0  0  0  0  0  0999 V2000
   13.1533   -5.2399   21.0682 C   0  0  0  0  0  0  0  0  0  0  0  0
   10.4729   -4.0295   17.6135 C   0  0  0  0  0  0  0  0  0  0  0  0
   10.4789   -4.3641   20.9564 C   0  0  0  0  0  0  0  0  0  0  0  0
    8.7421   -5.1412   16.3650 C   0  0  0  0  0  0  0  0  0  0  0  0
   11.4353   -2.9204   17.8044 C   0  0  0  0  0  0  0  0  0  0  0  0
   11.1529   -4.3028   22.1277 C   0  0  0  0  0  0  0  0  0  0  0  0
   11.1290   -4.8502   19.8052 C   0  0  0  0  0  0  0  0  0  0  0  0
   12.4329   -4.2159   24.4224 C   0  0  0  0  0  0  0  0  0  0  0  0
    3.4740   -9.0387   16.5022 C   0  0  0  0  0  0  0  0  0  0  0  0
    6.8384   -7.9290   17.5282 N   0  0  0  0  0  0  0  0  0  0  0  0
    9.4126   -5.9853   18.4899 C   0  0  0  0  0  0  0  0  0  0  0  0
    4.2064  -10.3242   18.3302 C   0  0  0  0  0  0  0  0  0  0  0  0
    9.6599   -4.1551   16.4796 N   0  0  0  0  0  0  0  0  0  0  0  0
    7.0644   -6.4612   15.7375 N   0  0  0  0  0  0  0  0  0  0  0  0
    5.3549   -9.6322   18.3190 C   0  0  0  0  0  0  0  0  0  0  0  0
   10.3704   -4.9638   18.6510 C   0  0  0  0  0  0  0  0  0  0  0  0
    5.5935   -8.6419   17.4234 C   0  0  0  0  0  0  0  0  0  0  0  0
   13.0726   -4.6648   23.3394 O   0  0  0  0  0  0  0  0  0  0  0  0
    8.5955   -6.0705   17.3996 C   0  0  0  0  0  0  0  0  0  0  0  0
    4.6223   -8.3832   16.5030 C   0  0  0  0  0  0  0  0  0  0  0  0
   12.4690   -5.2624   19.9024 C   0  0  0  0  0  0  0  0  0  0  0  0
    3.2548   -9.9919   17.4189 C   0  0  0  0  0  0  0  0  0  0  0  0
   12.4767   -4.7393   22.1790 C   0  0  0  0  0  0  0  0  0  0  0  0
    7.8593   -5.3772   15.3569 N   0  0  0  0  0  0  0  0  0  0  0  0
    7.4412   -6.9038   16.9283 C   0  0  0  0  0  0  0  0  0  0  0  0
  1 21  4  0
  1 23  4  0
  2  5  1  0
  2 13  4  0
  2 16  4  0
  3  6  4  0
  3  7  4  0
  4 13  4  0
  4 19  4  0
  4 24  4  0
  6 23  4  0
  7 16  1  0
  7 21  4  0
  8 18  1  0
  9 20  4  0
  9 22  4  0
 10 17  1  0
 10 25  1  0
 11 16  4  0
 11 19  4  0
 12 15  4  0
 12 22  4  0
 14 24  4  0
 14 25  4  0
 15 17  4  0
 17 20  4  0
 18 23  1  0
 19 25  4  0
M  END
$$$$

 Created by Python create_sdf_string function

 25 28  0  0  0  0  0  0  0  0999 V2000
   13.1533   -5.2399   21.0682 C   0  0  0  0  0  0  0  0  0  0  0  0
   10.4729   -4.0295   17.6135 C   0  0  0  0  0  0  0  0  0  0  0  0
   10.4789   -4.3641   20.9564 C   0  0  0  0  0  0  0  0  0  0  0  0
    8.7421   -5.1412   16.3650 C   0  0  0  0  0  0  0  0  0  0  0  0
   11.4353   -2.9204   17.8044 C   0  0  0  0  0  0  0  0  0  0  0  0
   11.1529   -4.3028   22.1277 C   0  0  0  0  0  0  0  0  0  0  0  0
   11.1290   -4.8502   19.8052 C   0  0  0  0  0  0  0  0  0  0  0  0
   12.4329   -4.2159   24.4224 C   0  0  0  0  0  0  0  0  0  0  0  0
    3.4740   -9.0387   16.5022 C   0  0  0  0  0  0  0  0  0  0  0  0
    6.8384   -7.9290   17.5282 N   0  0  0  0  0  0  0  0  0  0  0  0
    9.4126   -5.9853   18.4899 C   0  0  0  0  0  0  0  0  0  0  0  0
    4.2064  -10.3242   18.3302 C   0  0  0  0  0  0  0  0  0  0  0  0
    9.6599   -4.1551   16.4796 N   0  0  0  0  0  0  0  0  0  0  0  0
    7.0644   -6.4612   15.7375 N   0  0  0  0  0  0  0  0  0  0  0  0
    5.3549   -9.6322   18.3190 C   0  0  0  0  0  0  0  0  0  0  0  0
   10.3704   -4.9638   18.6510 C   0  0  0  0  0  0  0  0  0  0  0  0
    5.5935   -8.6419   17.4234 C   0  0  0  0  0  0  0  0  0  0  0  0
   13.0726   -4.6648   23.3394 O   0  0  0  0  0  0  0  0  0  0  0  0
    8.5955   -6.0705   17.3996 C   0  0  0  0  0  0  0  0  0  0  0  0
    4.6223   -8.3832   16.5030 C   0  0  0  0  0  0  0  0  0  0  0  0
   12.4690   -5.2624   19.9024 C   0  0  0  0  0  0  0  0  0  0  0  0
    3.2548   -9.9919   17.4189 C   0  0  0  0  0  0  0  0  0  0  0  0
   12.4767   -4.7393   22.1790 C   0  0  0  0  0  0  0  0  0  0  0  0
    7.8593   -5.3772   15.3569 N   0  0  0  0  0  0  0  0  0  0  0  0
    7.4412   -6.9038   16.9283 C   0  0  0  0  0  0  0  0  0  0  0  0
  1 21  4  0
  1 23  4  0
  2  5  1  0
  2 13  4  0
  2 16  4  0
  3  6  4  0
  3  7  4  0
  4 13  4  0
  4 19  4  0
  4 24  4  0
  6 23  4  0
  7 16  1  0
  7 21  4  0
  8 18  1  0
  9 20  4  0
  9 22  4  0
 10 17  1  0
 10 25  1  0
 11 16  4  0
 11 19  4  0
 12 15  4  0
 12 22  4  0
 14 24  4  0
 14 25  4  0
 15 17  4  0
 17 20  4  0
 18 23  1  0
 19 25  4  0
M  END
$$$$

 Created by Python create_sdf_string function

 25 28  0  0  0  0  0  0  0  0999 V2000
   13.1533   -5.2399   21.0682 C   0  0  0  0  0  0  0  0  0  0  0  0
   10.4729   -4.0295   17.6135 C   0  0  0  0  0  0  0  0  0  0  0  0
   10.4789   -4.3641   20.9564 C   0  0  0  0  0  0  0  0  0  0  0  0
    8.7421   -5.1412   16.3650 C   0  0  0  0  0  0  0  0  0  0  0  0
   11.4353   -2.9204   17.8044 C   0  0  0  0  0  0  0  0  0  0  0  0
   11.1529   -4.3028   22.1277 C   0  0  0  0  0  0  0  0  0  0  0  0
   11.1290   -4.8502   19.8052 C   0  0  0  0  0  0  0  0  0  0  0  0
   12.4329   -4.2159   24.4224 C   0  0  0  0  0  0  0  0  0  0  0  0
    3.4740   -9.0387   16.5022 C   0  0  0  0  0  0  0  0  0  0  0  0
    6.8384   -7.9290   17.5282 N   0  0  0  0  0  0  0  0  0  0  0  0
    9.4126   -5.9853   18.4899 C   0  0  0  0  0  0  0  0  0  0  0  0
    4.2064  -10.3242   18.3302 C   0  0  0  0  0  0  0  0  0  0  0  0
    9.6599   -4.1551   16.4796 N   0  0  0  0  0  0  0  0  0  0  0  0
    7.0644   -6.4612   15.7375 N   0  0  0  0  0  0  0  0  0  0  0  0
    5.3549   -9.6322   18.3190 C   0  0  0  0  0  0  0  0  0  0  0  0
   10.3704   -4.9638   18.6510 C   0  0  0  0  0  0  0  0  0  0  0  0
    5.5935   -8.6419   17.4234 C   0  0  0  0  0  0  0  0  0  0  0  0
   13.0726   -4.6648   23.3394 O   0  0  0  0  0  0  0  0  0  0  0  0
    8.5955   -6.0705   17.3996 C   0  0  0  0  0  0  0  0  0  0  0  0
    4.6223   -8.3832   16.5030 C   0  0  0  0  0  0  0  0  0  0  0  0
   12.4690   -5.2624   19.9024 C   0  0  0  0  0  0  0  0  0  0  0  0
    3.2548   -9.9919   17.4189 C   0  0  0  0  0  0  0  0  0  0  0  0
   12.4767   -4.7393   22.1790 C   0  0  0  0  0  0  0  0  0  0  0  0
    7.8593   -5.3772   15.3569 N   0  0  0  0  0  0  0  0  0  0  0  0
    7.4412   -6.9038   16.9283 C   0  0  0  0  0  0  0  0  0  0  0  0
  1 21  4  0
  1 23  4  0
  2  5  1  0
  2 13  4  0
  2 16  4  0
  3  6  4  0
  3  7  4  0
  4 13  4  0
  4 19  4  0
  4 24  4  0
  6 23  4  0
  7 16  1  0
  7 21  4  0
  8 18  1  0
  9 20  4  0
  9 22  4  0
 10 17  1  0
 10 25  1  0
 11 16  4  0
 11 19  4  0
 12 15  4  0
 12 22  4  0
 14 24  4  0
 14 25  4  0
 15 17  4  0
 17 20  4  0
 18 23  1  0
 19 25  4  0
M  END
$$$$

 Created by Python create_sdf_string function

 25 28  0  0  0  0  0  0  0  0999 V2000
   13.1533   -5.2399   21.0682 C   0  0  0  0  0  0  0  0  0  0  0  0
   10.4729   -4.0295   17.6135 C   0  0  0  0  0  0  0  0  0  0  0  0
   10.4789   -4.3641   20.9564 C   0  0  0  0  0  0  0  0  0  0  0  0
    8.7421   -5.1412   16.3650 C   0  0  0  0  0  0  0  0  0  0  0  0
   11.4353   -2.9204   17.8044 C   0  0  0  0  0  0  0  0  0  0  0  0
   11.1529   -4.3028   22.1277 C   0  0  0  0  0  0  0  0  0  0  0  0
   11.1290   -4.8502   19.8052 C   0  0  0  0  0  0  0  0  0  0  0  0
   12.4329   -4.2159   24.4224 C   0  0  0  0  0  0  0  0  0  0  0  0
    3.4740   -9.0387   16.5022 C   0  0  0  0  0  0  0  0  0  0  0  0
    6.8384   -7.9290   17.5282 N   0  0  0  0  0  0  0  0  0  0  0  0
    9.4126   -5.9853   18.4899 C   0  0  0  0  0  0  0  0  0  0  0  0
    4.2064  -10.3242   18.3302 C   0  0  0  0  0  0  0  0  0  0  0  0
    9.6599   -4.1551   16.4796 N   0  0  0  0  0  0  0  0  0  0  0  0
    7.0644   -6.4612   15.7375 N   0  0  0  0  0  0  0  0  0  0  0  0
    5.3549   -9.6322   18.3190 C   0  0  0  0  0  0  0  0  0  0  0  0
   10.3704   -4.9638   18.6510 C   0  0  0  0  0  0  0  0  0  0  0  0
    5.5935   -8.6419   17.4234 C   0  0  0  0  0  0  0  0  0  0  0  0
   13.0726   -4.6648   23.3394 O   0  0  0  0  0  0  0  0  0  0  0  0
    8.5955   -6.0705   17.3996 C   0  0  0  0  0  0  0  0  0  0  0  0
    4.6223   -8.3832   16.5030 C   0  0  0  0  0  0  0  0  0  0  0  0
   12.4690   -5.2624   19.9024 C   0  0  0  0  0  0  0  0  0  0  0  0
    3.2548   -9.9919   17.4189 C   0  0  0  0  0  0  0  0  0  0  0  0
   12.4767   -4.7393   22.1790 C   0  0  0  0  0  0  0  0  0  0  0  0
    7.8593   -5.3772   15.3569 N   0  0  0  0  0  0  0  0  0  0  0  0
    7.4412   -6.9038   16.9283 C   0  0  0  0  0  0  0  0  0  0  0  0
  1 21  4  0
  1 23  4  0
  2  5  1  0
  2 13  4  0
  2 16  4  0
  3  6  4  0
  3  7  4  0
  4 13  4  0
  4 19  4  0
  4 24  4  0
  6 23  4  0
  7 16  1  0
  7 21  4  0
  8 18  1  0
  9 20  4  0
  9 22  4  0
 10 17  1  0
 10 25  1  0
 11 16  4  0
 11 19  4  0
 12 15  4  0
 12 22  4  0
 14 24  4  0
 14 25  4  0
 15 17  4  0
 17 20  4  0
 18 23  1  0
 19 25  4  0
M  END
$$$$

 Created by Python create_sdf_string function

 25 28  0  0  0  0  0  0  0  0999 V2000
   13.1533   -5.2399   21.0682 C   0  0  0  0  0  0  0  0  0  0  0  0
   10.4729   -4.0295   17.6135 C   0  0  0  0  0  0  0  0  0  0  0  0
   10.4789   -4.3641   20.9564 C   0  0  0  0  0  0  0  0  0  0  0  0
    8.7421   -5.1412   16.3650 C   0  0  0  0  0  0  0  0  0  0  0  0
   11.4353   -2.9204   17.8044 C   0  0  0  0  0  0  0  0  0  0  0  0
   11.1529   -4.3028   22.1277 C   0  0  0  0  0  0  0  0  0  0  0  0
   11.1290   -4.8502   19.8052 C   0  0  0  0  0  0  0  0  0  0  0  0
   12.4329   -4.2159   24.4224 C   0  0  0  0  0  0  0  0  0  0  0  0
    3.4740   -9.0387   16.5022 C   0  0  0  0  0  0  0  0  0  0  0  0
    6.8384   -7.9290   17.5282 N   0  0  0  0  0  0  0  0  0  0  0  0
    9.4126   -5.9853   18.4899 C   0  0  0  0  0  0  0  0  0  0  0  0
    4.2064  -10.3242   18.3302 C   0  0  0  0  0  0  0  0  0  0  0  0
    9.6599   -4.1551   16.4796 N   0  0  0  0  0  0  0  0  0  0  0  0
    7.0644   -6.4612   15.7375 N   0  0  0  0  0  0  0  0  0  0  0  0
    5.3549   -9.6322   18.3190 C   0  0  0  0  0  0  0  0  0  0  0  0
   10.3704   -4.9638   18.6510 C   0  0  0  0  0  0  0  0  0  0  0  0
    5.5935   -8.6419   17.4234 C   0  0  0  0  0  0  0  0  0  0  0  0
   13.0726   -4.6648   23.3394 O   0  0  0  0  0  0  0  0  0  0  0  0
    8.5955   -6.0705   17.3996 C   0  0  0  0  0  0  0  0  0  0  0  0
    4.6223   -8.3832   16.5030 C   0  0  0  0  0  0  0  0  0  0  0  0
   12.4690   -5.2624   19.9024 C   0  0  0  0  0  0  0  0  0  0  0  0
    3.2548   -9.9919   17.4189 C   0  0  0  0  0  0  0  0  0  0  0  0
   12.4767   -4.7393   22.1790 C   0  0  0  0  0  0  0  0  0  0  0  0
    7.8593   -5.3772   15.3569 N   0  0  0  0  0  0  0  0  0  0  0  0
    7.4412   -6.9038   16.9283 C   0  0  0  0  0  0  0  0  0  0  0  0
  1 21  4  0
  1 23  4  0
  2  5  1  0
  2 13  4  0
  2 16  4  0
  3  6  4  0
  3  7  4  0
  4 13  4  0
  4 19  4  0
  4 24  4  0
  6 23  4  0
  7 16  1  0
  7 21  4  0
  8 18  1  0
  9 20  4  0
  9 22  4  0
 10 17  1  0
 10 25  1  0
 11 16  4  0
 11 19  4  0
 12 15  4  0
 12 22  4  0
 14 24  4  0
 14 25  4  0
 15 17  4  0
 17 20  4  0
 18 23  1  0
 19 25  4  0
M  END
$$$$

 Created by Python create_sdf_string function

 25 28  0  0  0  0  0  0  0  0999 V2000
   13.1533   -5.2399   21.0682 C   0  0  0  0  0  0  0  0  0  0  0  0
   10.4729   -4.0295   17.6135 C   0  0  0  0  0  0  0  0  0  0  0  0
   10.4789   -4.3641   20.9564 C   0  0  0  0  0  0  0  0  0  0  0  0
    8.7421   -5.1412   16.3650 C   0  0  0  0  0  0  0  0  0  0  0  0
   11.4353   -2.9204   17.8044 C   0  0  0  0  0  0  0  0  0  0  0  0
   11.1529   -4.3028   22.1277 C   0  0  0  0  0  0  0  0  0  0  0  0
   11.1290   -4.8502   19.8052 C   0  0  0  0  0  0  0  0  0  0  0  0
   12.4329   -4.2159   24.4224 C   0  0  0  0  0  0  0  0  0  0  0  0
    3.4740   -9.0387   16.5022 C   0  0  0  0  0  0  0  0  0  0  0  0
    6.8384   -7.9290   17.5282 N   0  0  0  0  0  0  0  0  0  0  0  0
    9.4126   -5.9853   18.4899 C   0  0  0  0  0  0  0  0  0  0  0  0
    4.2064  -10.3242   18.3302 C   0  0  0  0  0  0  0  0  0  0  0  0
    9.6599   -4.1551   16.4796 N   0  0  0  0  0  0  0  0  0  0  0  0
    7.0644   -6.4612   15.7375 N   0  0  0  0  0  0  0  0  0  0  0  0
    5.3549   -9.6322   18.3190 C   0  0  0  0  0  0  0  0  0  0  0  0
   10.3704   -4.9638   18.6510 C   0  0  0  0  0  0  0  0  0  0  0  0
    5.5935   -8.6419   17.4234 C   0  0  0  0  0  0  0  0  0  0  0  0
   13.0726   -4.6648   23.3394 O   0  0  0  0  0  0  0  0  0  0  0  0
    8.5955   -6.0705   17.3996 C   0  0  0  0  0  0  0  0  0  0  0  0
    4.6223   -8.3832   16.5030 C   0  0  0  0  0  0  0  0  0  0  0  0
   12.4690   -5.2624   19.9024 C   0  0  0  0  0  0  0  0  0  0  0  0
    3.2548   -9.9919   17.4189 C   0  0  0  0  0  0  0  0  0  0  0  0
   12.4767   -4.7393   22.1790 C   0  0  0  0  0  0  0  0  0  0  0  0
    7.8593   -5.3772   15.3569 N   0  0  0  0  0  0  0  0  0  0  0  0
    7.4412   -6.9038   16.9283 C   0  0  0  0  0  0  0  0  0  0  0  0
  1 21  4  0
  1 23  4  0
  2  5  1  0
  2 13  4  0
  2 16  4  0
  3  6  4  0
  3  7  4  0
  4 13  4  0
  4 19  4  0
  4 24  4  0
  6 23  4  0
  7 16  1  0
  7 21  4  0
  8 18  1  0
  9 20  4  0
  9 22  4  0
 10 17  1  0
 10 25  1  0
 11 16  4  0
 11 19  4  0
 12 15  4  0
 12 22  4  0
 14 24  4  0
 14 25  4  0
 15 17  4  0
 17 20  4  0
 18 23  1  0
 19 25  4  0
M  END
$$$$

 Created by Python create_sdf_string function

 25 28  0  0  0  0  0  0  0  0999 V2000
   13.1533   -5.2399   21.0682 C   0  0  0  0  0  0  0  0  0  0  0  0
   10.4729   -4.0295   17.6135 C   0  0  0  0  0  0  0  0  0  0  0  0
   10.4789   -4.3641   20.9564 C   0  0  0  0  0  0  0  0  0  0  0  0
    8.7421   -5.1412   16.3650 C   0  0  0  0  0  0  0  0  0  0  0  0
   11.4353   -2.9204   17.8044 C   0  0  0  0  0  0  0  0  0  0  0  0
   11.1529   -4.3028   22.1277 C   0  0  0  0  0  0  0  0  0  0  0  0
   11.1290   -4.8502   19.8052 C   0  0  0  0  0  0  0  0  0  0  0  0
   12.4329   -4.2159   24.4224 C   0  0  0  0  0  0  0  0  0  0  0  0
    3.4740   -9.0387   16.5022 C   0  0  0  0  0  0  0  0  0  0  0  0
    6.8384   -7.9290   17.5282 N   0  0  0  0  0  0  0  0  0  0  0  0
    9.4126   -5.9853   18.4899 C   0  0  0  0  0  0  0  0  0  0  0  0
    4.2064  -10.3242   18.3302 C   0  0  0  0  0  0  0  0  0  0  0  0
    9.6599   -4.1551   16.4796 N   0  0  0  0  0  0  0  0  0  0  0  0
    7.0644   -6.4612   15.7375 N   0  0  0  0  0  0  0  0  0  0  0  0
    5.3549   -9.6322   18.3190 C   0  0  0  0  0  0  0  0  0  0  0  0
   10.3704   -4.9638   18.6510 C   0  0  0  0  0  0  0  0  0  0  0  0
    5.5935   -8.6419   17.4234 C   0  0  0  0  0  0  0  0  0  0  0  0
   13.0726   -4.6648   23.3394 O   0  0  0  0  0  0  0  0  0  0  0  0
    8.5955   -6.0705   17.3996 C   0  0  0  0  0  0  0  0  0  0  0  0
    4.6223   -8.3832   16.5030 C   0  0  0  0  0  0  0  0  0  0  0  0
   12.4690   -5.2624   19.9024 C   0  0  0  0  0  0  0  0  0  0  0  0
    3.2548   -9.9919   17.4189 C   0  0  0  0  0  0  0  0  0  0  0  0
   12.4767   -4.7393   22.1790 C   0  0  0  0  0  0  0  0  0  0  0  0
    7.8593   -5.3772   15.3569 N   0  0  0  0  0  0  0  0  0  0  0  0
    7.4412   -6.9038   16.9283 C   0  0  0  0  0  0  0  0  0  0  0  0
  1 21  4  0
  1 23  4  0
  2  5  1  0
  2 13  4  0
  2 16  4  0
  3  6  4  0
  3  7  4  0
  4 13  4  0
  4 19  4  0
  4 24  4  0
  6 23  4  0
  7 16  1  0
  7 21  4  0
  8 18  1  0
  9 20  4  0
  9 22  4  0
 10 17  1  0
 10 25  1  0
 11 16  4  0
 11 19  4  0
 12 15  4  0
 12 22  4  0
 14 24  4  0
 14 25  4  0
 15 17  4  0
 17 20  4  0
 18 23  1  0
 19 25  4  0
M  END
$$$$

 Created by Python create_sdf_string function

 25 28  0  0  0  0  0  0  0  0999 V2000
   13.1533   -5.2399   21.0682 C   0  0  0  0  0  0  0  0  0  0  0  0
   10.4729   -4.0295   17.6135 C   0  0  0  0  0  0  0  0  0  0  0  0
   10.4789   -4.3641   20.9564 C   0  0  0  0  0  0  0  0  0  0  0  0
    8.7421   -5.1412   16.3650 C   0  0  0  0  0  0  0  0  0  0  0  0
   11.4353   -2.9204   17.8044 C   0  0  0  0  0  0  0  0  0  0  0  0
   11.1529   -4.3028   22.1277 C   0  0  0  0  0  0  0  0  0  0  0  0
   11.1290   -4.8502   19.8052 C   0  0  0  0  0  0  0  0  0  0  0  0
   12.4329   -4.2159   24.4224 C   0  0  0  0  0  0  0  0  0  0  0  0
    3.4740   -9.0387   16.5022 C   0  0  0  0  0  0  0  0  0  0  0  0
    6.8384   -7.9290   17.5282 N   0  0  0  0  0  0  0  0  0  0  0  0
    9.4126   -5.9853   18.4899 C   0  0  0  0  0  0  0  0  0  0  0  0
    4.2064  -10.3242   18.3302 C   0  0  0  0  0  0  0  0  0  0  0  0
    9.6599   -4.1551   16.4796 N   0  0  0  0  0  0  0  0  0  0  0  0
    7.0644   -6.4612   15.7375 N   0  0  0  0  0  0  0  0  0  0  0  0
    5.3549   -9.6322   18.3190 C   0  0  0  0  0  0  0  0  0  0  0  0
   10.3704   -4.9638   18.6510 C   0  0  0  0  0  0  0  0  0  0  0  0
    5.5935   -8.6419   17.4234 C   0  0  0  0  0  0  0  0  0  0  0  0
   13.0726   -4.6648   23.3394 O   0  0  0  0  0  0  0  0  0  0  0  0
    8.5955   -6.0705   17.3996 C   0  0  0  0  0  0  0  0  0  0  0  0
    4.6223   -8.3832   16.5030 C   0  0  0  0  0  0  0  0  0  0  0  0
   12.4690   -5.2624   19.9024 C   0  0  0  0  0  0  0  0  0  0  0  0
    3.2548   -9.9919   17.4189 C   0  0  0  0  0  0  0  0  0  0  0  0
   12.4767   -4.7393   22.1790 C   0  0  0  0  0  0  0  0  0  0  0  0
    7.8593   -5.3772   15.3569 N   0  0  0  0  0  0  0  0  0  0  0  0
    7.4412   -6.9038   16.9283 C   0  0  0  0  0  0  0  0  0  0  0  0
  1 21  4  0
  1 23  4  0
  2  5  1  0
  2 13  4  0
  2 16  4  0
  3  6  4  0
  3  7  4  0
  4 13  4  0
  4 19  4  0
  4 24  4  0
  6 23  4  0
  7 16  1  0
  7 21  4  0
  8 18  1  0
  9 20  4  0
  9 22  4  0
 10 17  1  0
 10 25  1  0
 11 16  4  0
 11 19  4  0
 12 15  4  0
 12 22  4  0
 14 24  4  0
 14 25  4  0
 15 17  4  0
 17 20  4  0
 18 23  1  0
 19 25  4  0
M  END
$$$$

 Created by Python create_sdf_string function

 25 28  0  0  0  0  0  0  0  0999 V2000
   13.1533   -5.2399   21.0682 C   0  0  0  0  0  0  0  0  0  0  0  0
   10.4729   -4.0295   17.6135 C   0  0  0  0  0  0  0  0  0  0  0  0
   10.4789   -4.3641   20.9564 C   0  0  0  0  0  0  0  0  0  0  0  0
    8.7421   -5.1412   16.3650 C   0  0  0  0  0  0  0  0  0  0  0  0
   11.4353   -2.9204   17.8044 C   0  0  0  0  0  0  0  0  0  0  0  0
   11.1529   -4.3028   22.1277 C   0  0  0  0  0  0  0  0  0  0  0  0
   11.1290   -4.8502   19.8052 C   0  0  0  0  0  0  0  0  0  0  0  0
   12.4329   -4.2159   24.4224 C   0  0  0  0  0  0  0  0  0  0  0  0
    3.4740   -9.0387   16.5022 C   0  0  0  0  0  0  0  0  0  0  0  0
    6.8384   -7.9290   17.5282 N   0  0  0  0  0  0  0  0  0  0  0  0
    9.4126   -5.9853   18.4899 C   0  0  0  0  0  0  0  0  0  0  0  0
    4.2064  -10.3242   18.3302 C   0  0  0  0  0  0  0  0  0  0  0  0
    9.6599   -4.1551   16.4796 N   0  0  0  0  0  0  0  0  0  0  0  0
    7.0644   -6.4612   15.7375 N   0  0  0  0  0  0  0  0  0  0  0  0
    5.3549   -9.6322   18.3190 C   0  0  0  0  0  0  0  0  0  0  0  0
   10.3704   -4.9638   18.6510 C   0  0  0  0  0  0  0  0  0  0  0  0
    5.5935   -8.6419   17.4234 C   0  0  0  0  0  0  0  0  0  0  0  0
   13.0726   -4.6648   23.3394 O   0  0  0  0  0  0  0  0  0  0  0  0
    8.5955   -6.0705   17.3996 C   0  0  0  0  0  0  0  0  0  0  0  0
    4.6223   -8.3832   16.5030 C   0  0  0  0  0  0  0  0  0  0  0  0
   12.4690   -5.2624   19.9024 C   0  0  0  0  0  0  0  0  0  0  0  0
    3.2548   -9.9919   17.4189 C   0  0  0  0  0  0  0  0  0  0  0  0
   12.4767   -4.7393   22.1790 C   0  0  0  0  0  0  0  0  0  0  0  0
    7.8593   -5.3772   15.3569 N   0  0  0  0  0  0  0  0  0  0  0  0
    7.4412   -6.9038   16.9283 C   0  0  0  0  0  0  0  0  0  0  0  0
  1 21  4  0
  1 23  4  0
  2  5  1  0
  2 13  4  0
  2 16  4  0
  3  6  4  0
  3  7  4  0
  4 13  4  0
  4 19  4  0
  4 24  4  0
  6 23  4  0
  7 16  1  0
  7 21  4  0
  8 18  1  0
  9 20  4  0
  9 22  4  0
 10 17  1  0
 10 25  1  0
 11 16  4  0
 11 19  4  0
 12 15  4  0
 12 22  4  0
 14 24  4  0
 14 25  4  0
 15 17  4  0
 17 20  4  0
 18 23  1  0
 19 25  4  0
M  END
$$$$

 Created by Python create_sdf_string function

 25 28  0  0  0  0  0  0  0  0999 V2000
   13.1533   -5.2399   21.0682 C   0  0  0  0  0  0  0  0  0  0  0  0
   10.4729   -4.0295   17.6135 C   0  0  0  0  0  0  0  0  0  0  0  0
   10.4789   -4.3641   20.9564 C   0  0  0  0  0  0  0  0  0  0  0  0
    8.7421   -5.1412   16.3650 C   0  0  0  0  0  0  0  0  0  0  0  0
   11.4353   -2.9204   17.8044 C   0  0  0  0  0  0  0  0  0  0  0  0
   11.1529   -4.3028   22.1277 C   0  0  0  0  0  0  0  0  0  0  0  0
   11.1290   -4.8502   19.8052 C   0  0  0  0  0  0  0  0  0  0  0  0
   12.4329   -4.2159   24.4224 C   0  0  0  0  0  0  0  0  0  0  0  0
    3.4740   -9.0387   16.5022 C   0  0  0  0  0  0  0  0  0  0  0  0
    6.8384   -7.9290   17.5282 N   0  0  0  0  0  0  0  0  0  0  0  0
    9.4126   -5.9853   18.4899 C   0  0  0  0  0  0  0  0  0  0  0  0
    4.2064  -10.3242   18.3302 C   0  0  0  0  0  0  0  0  0  0  0  0
    9.6599   -4.1551   16.4796 N   0  0  0  0  0  0  0  0  0  0  0  0
    7.0644   -6.4612   15.7375 N   0  0  0  0  0  0  0  0  0  0  0  0
    5.3549   -9.6322   18.3190 C   0  0  0  0  0  0  0  0  0  0  0  0
   10.3704   -4.9638   18.6510 C   0  0  0  0  0  0  0  0  0  0  0  0
    5.5935   -8.6419   17.4234 C   0  0  0  0  0  0  0  0  0  0  0  0
   13.0726   -4.6648   23.3394 O   0  0  0  0  0  0  0  0  0  0  0  0
    8.5955   -6.0705   17.3996 C   0  0  0  0  0  0  0  0  0  0  0  0
    4.6223   -8.3832   16.5030 C   0  0  0  0  0  0  0  0  0  0  0  0
   12.4690   -5.2624   19.9024 C   0  0  0  0  0  0  0  0  0  0  0  0
    3.2548   -9.9919   17.4189 C   0  0  0  0  0  0  0  0  0  0  0  0
   12.4767   -4.7393   22.1790 C   0  0  0  0  0  0  0  0  0  0  0  0
    7.8593   -5.3772   15.3569 N   0  0  0  0  0  0  0  0  0  0  0  0
    7.4412   -6.9038   16.9283 C   0  0  0  0  0  0  0  0  0  0  0  0
  1 21  4  0
  1 23  4  0
  2  5  1  0
  2 13  4  0
  2 16  4  0
  3  6  4  0
  3  7  4  0
  4 13  4  0
  4 19  4  0
  4 24  4  0
  6 23  4  0
  7 16  1  0
  7 21  4  0
  8 18  1  0
  9 20  4  0
  9 22  4  0
 10 17  1  0
 10 25  1  0
 11 16  4  0
 11 19  4  0
 12 15  4  0
 12 22  4  0
 14 24  4  0
 14 25  4  0
 15 17  4  0
 17 20  4  0
 18 23  1  0
 19 25  4  0
M  END
$$$$

 Created by Python create_sdf_string function

 25 28  0  0  0  0  0  0  0  0999 V2000
   13.1533   -5.2399   21.0682 C   0  0  0  0  0  0  0  0  0  0  0  0
   10.4729   -4.0295   17.6135 C   0  0  0  0  0  0  0  0  0  0  0  0
   10.4789   -4.3641   20.9564 C   0  0  0  0  0  0  0  0  0  0  0  0
    8.7421   -5.1412   16.3650 C   0  0  0  0  0  0  0  0  0  0  0  0
   11.4353   -2.9204   17.8044 C   0  0  0  0  0  0  0  0  0  0  0  0
   11.1529   -4.3028   22.1277 C   0  0  0  0  0  0  0  0  0  0  0  0
   11.1290   -4.8502   19.8052 C   0  0  0  0  0  0  0  0  0  0  0  0
   12.4329   -4.2159   24.4224 C   0  0  0  0  0  0  0  0  0  0  0  0
    3.4740   -9.0387   16.5022 C   0  0  0  0  0  0  0  0  0  0  0  0
    6.8384   -7.9290   17.5282 N   0  0  0  0  0  0  0  0  0  0  0  0
    9.4126   -5.9853   18.4899 C   0  0  0  0  0  0  0  0  0  0  0  0
    4.2064  -10.3242   18.3302 C   0  0  0  0  0  0  0  0  0  0  0  0
    9.6599   -4.1551   16.4796 N   0  0  0  0  0  0  0  0  0  0  0  0
    7.0644   -6.4612   15.7375 N   0  0  0  0  0  0  0  0  0  0  0  0
    5.3549   -9.6322   18.3190 C   0  0  0  0  0  0  0  0  0  0  0  0
   10.3704   -4.9638   18.6510 C   0  0  0  0  0  0  0  0  0  0  0  0
    5.5935   -8.6419   17.4234 C   0  0  0  0  0  0  0  0  0  0  0  0
   13.0726   -4.6648   23.3394 O   0  0  0  0  0  0  0  0  0  0  0  0
    8.5955   -6.0705   17.3996 C   0  0  0  0  0  0  0  0  0  0  0  0
    4.6223   -8.3832   16.5030 C   0  0  0  0  0  0  0  0  0  0  0  0
   12.4690   -5.2624   19.9024 C   0  0  0  0  0  0  0  0  0  0  0  0
    3.2548   -9.9919   17.4189 C   0  0  0  0  0  0  0  0  0  0  0  0
   12.4767   -4.7393   22.1790 C   0  0  0  0  0  0  0  0  0  0  0  0
    7.8593   -5.3772   15.3569 N   0  0  0  0  0  0  0  0  0  0  0  0
    7.4412   -6.9038   16.9283 C   0  0  0  0  0  0  0  0  0  0  0  0
  1 21  4  0
  1 23  4  0
  2  5  1  0
  2 13  4  0
  2 16  4  0
  3  6  4  0
  3  7  4  0
  4 13  4  0
  4 19  4  0
  4 24  4  0
  6 23  4  0
  7 16  1  0
  7 21  4  0
  8 18  1  0
  9 20  4  0
  9 22  4  0
 10 17  1  0
 10 25  1  0
 11 16  4  0
 11 19  4  0
 12 15  4  0
 12 22  4  0
 14 24  4  0
 14 25  4  0
 15 17  4  0
 17 20  4  0
 18 23  1  0
 19 25  4  0
M  END
$$$$

 Created by Python create_sdf_string function

 25 28  0  0  0  0  0  0  0  0999 V2000
   13.1533   -5.2399   21.0682 C   0  0  0  0  0  0  0  0  0  0  0  0
   10.4729   -4.0295   17.6135 C   0  0  0  0  0  0  0  0  0  0  0  0
   10.4789   -4.3641   20.9564 C   0  0  0  0  0  0  0  0  0  0  0  0
    8.7421   -5.1412   16.3650 C   0  0  0  0  0  0  0  0  0  0  0  0
   11.4353   -2.9204   17.8044 C   0  0  0  0  0  0  0  0  0  0  0  0
   11.1529   -4.3028   22.1277 C   0  0  0  0  0  0  0  0  0  0  0  0
   11.1290   -4.8502   19.8052 C   0  0  0  0  0  0  0  0  0  0  0  0
   12.4329   -4.2159   24.4224 C   0  0  0  0  0  0  0  0  0  0  0  0
    3.4740   -9.0387   16.5022 C   0  0  0  0  0  0  0  0  0  0  0  0
    6.8384   -7.9290   17.5282 N   0  0  0  0  0  0  0  0  0  0  0  0
    9.4126   -5.9853   18.4899 C   0  0  0  0  0  0  0  0  0  0  0  0
    4.2064  -10.3242   18.3302 C   0  0  0  0  0  0  0  0  0  0  0  0
    9.6599   -4.1551   16.4796 N   0  0  0  0  0  0  0  0  0  0  0  0
    7.0644   -6.4612   15.7375 N   0  0  0  0  0  0  0  0  0  0  0  0
    5.3549   -9.6322   18.3190 C   0  0  0  0  0  0  0  0  0  0  0  0
   10.3704   -4.9638   18.6510 C   0  0  0  0  0  0  0  0  0  0  0  0
    5.5935   -8.6419   17.4234 C   0  0  0  0  0  0  0  0  0  0  0  0
   13.0726   -4.6648   23.3394 O   0  0  0  0  0  0  0  0  0  0  0  0
    8.5955   -6.0705   17.3996 C   0  0  0  0  0  0  0  0  0  0  0  0
    4.6223   -8.3832   16.5030 C   0  0  0  0  0  0  0  0  0  0  0  0
   12.4690   -5.2624   19.9024 C   0  0  0  0  0  0  0  0  0  0  0  0
    3.2548   -9.9919   17.4189 C   0  0  0  0  0  0  0  0  0  0  0  0
   12.4767   -4.7393   22.1790 C   0  0  0  0  0  0  0  0  0  0  0  0
    7.8593   -5.3772   15.3569 N   0  0  0  0  0  0  0  0  0  0  0  0
    7.4412   -6.9038   16.9283 C   0  0  0  0  0  0  0  0  0  0  0  0
  1 21  4  0
  1 23  4  0
  2  5  1  0
  2 13  4  0
  2 16  4  0
  3  6  4  0
  3  7  4  0
  4 13  4  0
  4 19  4  0
  4 24  4  0
  6 23  4  0
  7 16  1  0
  7 21  4  0
  8 18  1  0
  9 20  4  0
  9 22  4  0
 10 17  1  0
 10 25  1  0
 11 16  4  0
 11 19  4  0
 12 15  4  0
 12 22  4  0
 14 24  4  0
 14 25  4  0
 15 17  4  0
 17 20  4  0
 18 23  1  0
 19 25  4  0
M  END
$$$$

 Created by Python create_sdf_string function

 25 28  0  0  0  0  0  0  0  0999 V2000
   13.1533   -5.2399   21.0682 C   0  0  0  0  0  0  0  0  0  0  0  0
   10.4729   -4.0295   17.6135 C   0  0  0  0  0  0  0  0  0  0  0  0
   10.4789   -4.3641   20.9564 C   0  0  0  0  0  0  0  0  0  0  0  0
    8.7421   -5.1412   16.3650 C   0  0  0  0  0  0  0  0  0  0  0  0
   11.4353   -2.9204   17.8044 C   0  0  0  0  0  0  0  0  0  0  0  0
   11.1529   -4.3028   22.1277 C   0  0  0  0  0  0  0  0  0  0  0  0
   11.1290   -4.8502   19.8052 C   0  0  0  0  0  0  0  0  0  0  0  0
   12.4329   -4.2159   24.4224 C   0  0  0  0  0  0  0  0  0  0  0  0
    3.4740   -9.0387   16.5022 C   0  0  0  0  0  0  0  0  0  0  0  0
    6.8384   -7.9290   17.5282 N   0  0  0  0  0  0  0  0  0  0  0  0
    9.4126   -5.9853   18.4899 C   0  0  0  0  0  0  0  0  0  0  0  0
    4.2064  -10.3242   18.3302 C   0  0  0  0  0  0  0  0  0  0  0  0
    9.6599   -4.1551   16.4796 N   0  0  0  0  0  0  0  0  0  0  0  0
    7.0644   -6.4612   15.7375 N   0  0  0  0  0  0  0  0  0  0  0  0
    5.3549   -9.6322   18.3190 C   0  0  0  0  0  0  0  0  0  0  0  0
   10.3704   -4.9638   18.6510 C   0  0  0  0  0  0  0  0  0  0  0  0
    5.5935   -8.6419   17.4234 C   0  0  0  0  0  0  0  0  0  0  0  0
   13.0726   -4.6648   23.3394 O   0  0  0  0  0  0  0  0  0  0  0  0
    8.5955   -6.0705   17.3996 C   0  0  0  0  0  0  0  0  0  0  0  0
    4.6223   -8.3832   16.5030 C   0  0  0  0  0  0  0  0  0  0  0  0
   12.4690   -5.2624   19.9024 C   0  0  0  0  0  0  0  0  0  0  0  0
    3.2548   -9.9919   17.4189 C   0  0  0  0  0  0  0  0  0  0  0  0
   12.4767   -4.7393   22.1790 C   0  0  0  0  0  0  0  0  0  0  0  0
    7.8593   -5.3772   15.3569 N   0  0  0  0  0  0  0  0  0  0  0  0
    7.4412   -6.9038   16.9283 C   0  0  0  0  0  0  0  0  0  0  0  0
  1 21  4  0
  1 23  4  0
  2  5  1  0
  2 13  4  0
  2 16  4  0
  3  6  4  0
  3  7  4  0
  4 13  4  0
  4 19  4  0
  4 24  4  0
  6 23  4  0
  7 16  1  0
  7 21  4  0
  8 18  1  0
  9 20  4  0
  9 22  4  0
 10 17  1  0
 10 25  1  0
 11 16  4  0
 11 19  4  0
 12 15  4  0
 12 22  4  0
 14 24  4  0
 14 25  4  0
 15 17  4  0
 17 20  4  0
 18 23  1  0
 19 25  4  0
M  END
$$$$

 Created by Python create_sdf_string function

 25 28  0  0  0  0  0  0  0  0999 V2000
   13.1533   -5.2399   21.0682 C   0  0  0  0  0  0  0  0  0  0  0  0
   10.4729   -4.0295   17.6135 C   0  0  0  0  0  0  0  0  0  0  0  0
   10.4789   -4.3641   20.9564 C   0  0  0  0  0  0  0  0  0  0  0  0
    8.7421   -5.1412   16.3650 C   0  0  0  0  0  0  0  0  0  0  0  0
   11.4353   -2.9204   17.8044 C   0  0  0  0  0  0  0  0  0  0  0  0
   11.1529   -4.3028   22.1277 C   0  0  0  0  0  0  0  0  0  0  0  0
   11.1290   -4.8502   19.8052 C   0  0  0  0  0  0  0  0  0  0  0  0
   12.4329   -4.2159   24.4224 C   0  0  0  0  0  0  0  0  0  0  0  0
    3.4740   -9.0387   16.5022 C   0  0  0  0  0  0  0  0  0  0  0  0
    6.8384   -7.9290   17.5282 N   0  0  0  0  0  0  0  0  0  0  0  0
    9.4126   -5.9853   18.4899 C   0  0  0  0  0  0  0  0  0  0  0  0
    4.2064  -10.3242   18.3302 C   0  0  0  0  0  0  0  0  0  0  0  0
    9.6599   -4.1551   16.4796 N   0  0  0  0  0  0  0  0  0  0  0  0
    7.0644   -6.4612   15.7375 N   0  0  0  0  0  0  0  0  0  0  0  0
    5.3549   -9.6322   18.3190 C   0  0  0  0  0  0  0  0  0  0  0  0
   10.3704   -4.9638   18.6510 C   0  0  0  0  0  0  0  0  0  0  0  0
    5.5935   -8.6419   17.4234 C   0  0  0  0  0  0  0  0  0  0  0  0
   13.0726   -4.6648   23.3394 O   0  0  0  0  0  0  0  0  0  0  0  0
    8.5955   -6.0705   17.3996 C   0  0  0  0  0  0  0  0  0  0  0  0
    4.6223   -8.3832   16.5030 C   0  0  0  0  0  0  0  0  0  0  0  0
   12.4690   -5.2624   19.9024 C   0  0  0  0  0  0  0  0  0  0  0  0
    3.2548   -9.9919   17.4189 C   0  0  0  0  0  0  0  0  0  0  0  0
   12.4767   -4.7393   22.1790 C   0  0  0  0  0  0  0  0  0  0  0  0
    7.8593   -5.3772   15.3569 N   0  0  0  0  0  0  0  0  0  0  0  0
    7.4412   -6.9038   16.9283 C   0  0  0  0  0  0  0  0  0  0  0  0
  1 21  4  0
  1 23  4  0
  2  5  1  0
  2 13  4  0
  2 16  4  0
  3  6  4  0
  3  7  4  0
  4 13  4  0
  4 19  4  0
  4 24  4  0
  6 23  4  0
  7 16  1  0
  7 21  4  0
  8 18  1  0
  9 20  4  0
  9 22  4  0
 10 17  1  0
 10 25  1  0
 11 16  4  0
 11 19  4  0
 12 15  4  0
 12 22  4  0
 14 24  4  0
 14 25  4  0
 15 17  4  0
 17 20  4  0
 18 23  1  0
 19 25  4  0
M  END
$$$$

 Created by Python create_sdf_string function

 25 28  0  0  0  0  0  0  0  0999 V2000
   13.1533   -5.2399   21.0682 C   0  0  0  0  0  0  0  0  0  0  0  0
   10.4729   -4.0295   17.6135 C   0  0  0  0  0  0  0  0  0  0  0  0
   10.4789   -4.3641   20.9564 C   0  0  0  0  0  0  0  0  0  0  0  0
    8.7421   -5.1412   16.3650 C   0  0  0  0  0  0  0  0  0  0  0  0
   11.4353   -2.9204   17.8044 C   0  0  0  0  0  0  0  0  0  0  0  0
   11.1529   -4.3028   22.1277 C   0  0  0  0  0  0  0  0  0  0  0  0
   11.1290   -4.8502   19.8052 C   0  0  0  0  0  0  0  0  0  0  0  0
   12.4329   -4.2159   24.4224 C   0  0  0  0  0  0  0  0  0  0  0  0
    3.4740   -9.0387   16.5022 C   0  0  0  0  0  0  0  0  0  0  0  0
    6.8384   -7.9290   17.5282 N   0  0  0  0  0  0  0  0  0  0  0  0
    9.4126   -5.9853   18.4899 C   0  0  0  0  0  0  0  0  0  0  0  0
    4.2064  -10.3242   18.3302 C   0  0  0  0  0  0  0  0  0  0  0  0
    9.6599   -4.1551   16.4796 N   0  0  0  0  0  0  0  0  0  0  0  0
    7.0644   -6.4612   15.7375 N   0  0  0  0  0  0  0  0  0  0  0  0
    5.3549   -9.6322   18.3190 C   0  0  0  0  0  0  0  0  0  0  0  0
   10.3704   -4.9638   18.6510 C   0  0  0  0  0  0  0  0  0  0  0  0
    5.5935   -8.6419   17.4234 C   0  0  0  0  0  0  0  0  0  0  0  0
   13.0726   -4.6648   23.3394 O   0  0  0  0  0  0  0  0  0  0  0  0
    8.5955   -6.0705   17.3996 C   0  0  0  0  0  0  0  0  0  0  0  0
    4.6223   -8.3832   16.5030 C   0  0  0  0  0  0  0  0  0  0  0  0
   12.4690   -5.2624   19.9024 C   0  0  0  0  0  0  0  0  0  0  0  0
    3.2548   -9.9919   17.4189 C   0  0  0  0  0  0  0  0  0  0  0  0
   12.4767   -4.7393   22.1790 C   0  0  0  0  0  0  0  0  0  0  0  0
    7.8593   -5.3772   15.3569 N   0  0  0  0  0  0  0  0  0  0  0  0
    7.4412   -6.9038   16.9283 C   0  0  0  0  0  0  0  0  0  0  0  0
  1 21  4  0
  1 23  4  0
  2  5  1  0
  2 13  4  0
  2 16  4  0
  3  6  4  0
  3  7  4  0
  4 13  4  0
  4 19  4  0
  4 24  4  0
  6 23  4  0
  7 16  1  0
  7 21  4  0
  8 18  1  0
  9 20  4  0
  9 22  4  0
 10 17  1  0
 10 25  1  0
 11 16  4  0
 11 19  4  0
 12 15  4  0
 12 22  4  0
 14 24  4  0
 14 25  4  0
 15 17  4  0
 17 20  4  0
 18 23  1  0
 19 25  4  0
M  END
$$$$

 Created by Python create_sdf_string function

 25 28  0  0  0  0  0  0  0  0999 V2000
   13.1533   -5.2399   21.0682 C   0  0  0  0  0  0  0  0  0  0  0  0
   10.4729   -4.0295   17.6135 C   0  0  0  0  0  0  0  0  0  0  0  0
   10.4789   -4.3641   20.9564 C   0  0  0  0  0  0  0  0  0  0  0  0
    8.7421   -5.1412   16.3650 C   0  0  0  0  0  0  0  0  0  0  0  0
   11.4353   -2.9204   17.8044 C   0  0  0  0  0  0  0  0  0  0  0  0
   11.1529   -4.3028   22.1277 C   0  0  0  0  0  0  0  0  0  0  0  0
   11.1290   -4.8502   19.8052 C   0  0  0  0  0  0  0  0  0  0  0  0
   12.4329   -4.2159   24.4224 C   0  0  0  0  0  0  0  0  0  0  0  0
    3.4740   -9.0387   16.5022 C   0  0  0  0  0  0  0  0  0  0  0  0
    6.8384   -7.9290   17.5282 N   0  0  0  0  0  0  0  0  0  0  0  0
    9.4126   -5.9853   18.4899 C   0  0  0  0  0  0  0  0  0  0  0  0
    4.2064  -10.3242   18.3302 C   0  0  0  0  0  0  0  0  0  0  0  0
    9.6599   -4.1551   16.4796 N   0  0  0  0  0  0  0  0  0  0  0  0
    7.0644   -6.4612   15.7375 N   0  0  0  0  0  0  0  0  0  0  0  0
    5.3549   -9.6322   18.3190 C   0  0  0  0  0  0  0  0  0  0  0  0
   10.3704   -4.9638   18.6510 C   0  0  0  0  0  0  0  0  0  0  0  0
    5.5935   -8.6419   17.4234 C   0  0  0  0  0  0  0  0  0  0  0  0
   13.0726   -4.6648   23.3394 O   0  0  0  0  0  0  0  0  0  0  0  0
    8.5955   -6.0705   17.3996 C   0  0  0  0  0  0  0  0  0  0  0  0
    4.6223   -8.3832   16.5030 C   0  0  0  0  0  0  0  0  0  0  0  0
   12.4690   -5.2624   19.9024 C   0  0  0  0  0  0  0  0  0  0  0  0
    3.2548   -9.9919   17.4189 C   0  0  0  0  0  0  0  0  0  0  0  0
   12.4767   -4.7393   22.1790 C   0  0  0  0  0  0  0  0  0  0  0  0
    7.8593   -5.3772   15.3569 N   0  0  0  0  0  0  0  0  0  0  0  0
    7.4412   -6.9038   16.9283 C   0  0  0  0  0  0  0  0  0  0  0  0
  1 21  4  0
  1 23  4  0
  2  5  1  0
  2 13  4  0
  2 16  4  0
  3  6  4  0
  3  7  4  0
  4 13  4  0
  4 19  4  0
  4 24  4  0
  6 23  4  0
  7 16  1  0
  7 21  4  0
  8 18  1  0
  9 20  4  0
  9 22  4  0
 10 17  1  0
 10 25  1  0
 11 16  4  0
 11 19  4  0
 12 15  4  0
 12 22  4  0
 14 24  4  0
 14 25  4  0
 15 17  4  0
 17 20  4  0
 18 23  1  0
 19 25  4  0
M  END
$$$$

 Created by Python create_sdf_string function

 25 28  0  0  0  0  0  0  0  0999 V2000
   13.1533   -5.2399   21.0682 C   0  0  0  0  0  0  0  0  0  0  0  0
   10.4729   -4.0295   17.6135 C   0  0  0  0  0  0  0  0  0  0  0  0
   10.4789   -4.3641   20.9564 C   0  0  0  0  0  0  0  0  0  0  0  0
    8.7421   -5.1412   16.3650 C   0  0  0  0  0  0  0  0  0  0  0  0
   11.4353   -2.9204   17.8044 C   0  0  0  0  0  0  0  0  0  0  0  0
   11.1529   -4.3028   22.1277 C   0  0  0  0  0  0  0  0  0  0  0  0
   11.1290   -4.8502   19.8052 C   0  0  0  0  0  0  0  0  0  0  0  0
   12.4329   -4.2159   24.4224 C   0  0  0  0  0  0  0  0  0  0  0  0
    3.4740   -9.0387   16.5022 C   0  0  0  0  0  0  0  0  0  0  0  0
    6.8384   -7.9290   17.5282 N   0  0  0  0  0  0  0  0  0  0  0  0
    9.4126   -5.9853   18.4899 C   0  0  0  0  0  0  0  0  0  0  0  0
    4.2064  -10.3242   18.3302 C   0  0  0  0  0  0  0  0  0  0  0  0
    9.6599   -4.1551   16.4796 N   0  0  0  0  0  0  0  0  0  0  0  0
    7.0644   -6.4612   15.7375 N   0  0  0  0  0  0  0  0  0  0  0  0
    5.3549   -9.6322   18.3190 C   0  0  0  0  0  0  0  0  0  0  0  0
   10.3704   -4.9638   18.6510 C   0  0  0  0  0  0  0  0  0  0  0  0
    5.5935   -8.6419   17.4234 C   0  0  0  0  0  0  0  0  0  0  0  0
   13.0726   -4.6648   23.3394 O   0  0  0  0  0  0  0  0  0  0  0  0
    8.5955   -6.0705   17.3996 C   0  0  0  0  0  0  0  0  0  0  0  0
    4.6223   -8.3832   16.5030 C   0  0  0  0  0  0  0  0  0  0  0  0
   12.4690   -5.2624   19.9024 C   0  0  0  0  0  0  0  0  0  0  0  0
    3.2548   -9.9919   17.4189 C   0  0  0  0  0  0  0  0  0  0  0  0
   12.4767   -4.7393   22.1790 C   0  0  0  0  0  0  0  0  0  0  0  0
    7.8593   -5.3772   15.3569 N   0  0  0  0  0  0  0  0  0  0  0  0
    7.4412   -6.9038   16.9283 C   0  0  0  0  0  0  0  0  0  0  0  0
  1 21  4  0
  1 23  4  0
  2  5  1  0
  2 13  4  0
  2 16  4  0
  3  6  4  0
  3  7  4  0
  4 13  4  0
  4 19  4  0
  4 24  4  0
  6 23  4  0
  7 16  1  0
  7 21  4  0
  8 18  1  0
  9 20  4  0
  9 22  4  0
 10 17  1  0
 10 25  1  0
 11 16  4  0
 11 19  4  0
 12 15  4  0
 12 22  4  0
 14 24  4  0
 14 25  4  0
 15 17  4  0
 17 20  4  0
 18 23  1  0
 19 25  4  0
M  END
$$$$

 Created by Python create_sdf_string function

 25 28  0  0  0  0  0  0  0  0999 V2000
   13.1533   -5.2399   21.0682 C   0  0  0  0  0  0  0  0  0  0  0  0
   10.4729   -4.0295   17.6135 C   0  0  0  0  0  0  0  0  0  0  0  0
   10.4789   -4.3641   20.9564 C   0  0  0  0  0  0  0  0  0  0  0  0
    8.7421   -5.1412   16.3650 C   0  0  0  0  0  0  0  0  0  0  0  0
   11.4353   -2.9204   17.8044 C   0  0  0  0  0  0  0  0  0  0  0  0
   11.1529   -4.3028   22.1277 C   0  0  0  0  0  0  0  0  0  0  0  0
   11.1290   -4.8502   19.8052 C   0  0  0  0  0  0  0  0  0  0  0  0
   12.4329   -4.2159   24.4224 C   0  0  0  0  0  0  0  0  0  0  0  0
    3.4740   -9.0387   16.5022 C   0  0  0  0  0  0  0  0  0  0  0  0
    6.8384   -7.9290   17.5282 N   0  0  0  0  0  0  0  0  0  0  0  0
    9.4126   -5.9853   18.4899 C   0  0  0  0  0  0  0  0  0  0  0  0
    4.2064  -10.3242   18.3302 C   0  0  0  0  0  0  0  0  0  0  0  0
    9.6599   -4.1551   16.4796 N   0  0  0  0  0  0  0  0  0  0  0  0
    7.0644   -6.4612   15.7375 N   0  0  0  0  0  0  0  0  0  0  0  0
    5.3549   -9.6322   18.3190 C   0  0  0  0  0  0  0  0  0  0  0  0
   10.3704   -4.9638   18.6510 C   0  0  0  0  0  0  0  0  0  0  0  0
    5.5935   -8.6419   17.4234 C   0  0  0  0  0  0  0  0  0  0  0  0
   13.0726   -4.6648   23.3394 O   0  0  0  0  0  0  0  0  0  0  0  0
    8.5955   -6.0705   17.3996 C   0  0  0  0  0  0  0  0  0  0  0  0
    4.6223   -8.3832   16.5030 C   0  0  0  0  0  0  0  0  0  0  0  0
   12.4690   -5.2624   19.9024 C   0  0  0  0  0  0  0  0  0  0  0  0
    3.2548   -9.9919   17.4189 C   0  0  0  0  0  0  0  0  0  0  0  0
   12.4767   -4.7393   22.1790 C   0  0  0  0  0  0  0  0  0  0  0  0
    7.8593   -5.3772   15.3569 N   0  0  0  0  0  0  0  0  0  0  0  0
    7.4412   -6.9038   16.9283 C   0  0  0  0  0  0  0  0  0  0  0  0
  1 21  4  0
  1 23  4  0
  2  5  1  0
  2 13  4  0
  2 16  4  0
  3  6  4  0
  3  7  4  0
  4 13  4  0
  4 19  4  0
  4 24  4  0
  6 23  4  0
  7 16  1  0
  7 21  4  0
  8 18  1  0
  9 20  4  0
  9 22  4  0
 10 17  1  0
 10 25  1  0
 11 16  4  0
 11 19  4  0
 12 15  4  0
 12 22  4  0
 14 24  4  0
 14 25  4  0
 15 17  4  0
 17 20  4  0
 18 23  1  0
 19 25  4  0
M  END
$$$$

 Created by Python create_sdf_string function

 25 28  0  0  0  0  0  0  0  0999 V2000
   13.1533   -5.2399   21.0682 C   0  0  0  0  0  0  0  0  0  0  0  0
   10.4729   -4.0295   17.6135 C   0  0  0  0  0  0  0  0  0  0  0  0
   10.4789   -4.3641   20.9564 C   0  0  0  0  0  0  0  0  0  0  0  0
    8.7421   -5.1412   16.3650 C   0  0  0  0  0  0  0  0  0  0  0  0
   11.4353   -2.9204   17.8044 C   0  0  0  0  0  0  0  0  0  0  0  0
   11.1529   -4.3028   22.1277 C   0  0  0  0  0  0  0  0  0  0  0  0
   11.1290   -4.8502   19.8052 C   0  0  0  0  0  0  0  0  0  0  0  0
   12.4329   -4.2159   24.4224 C   0  0  0  0  0  0  0  0  0  0  0  0
    3.4740   -9.0387   16.5022 C   0  0  0  0  0  0  0  0  0  0  0  0
    6.8384   -7.9290   17.5282 N   0  0  0  0  0  0  0  0  0  0  0  0
    9.4126   -5.9853   18.4899 C   0  0  0  0  0  0  0  0  0  0  0  0
    4.2064  -10.3242   18.3302 C   0  0  0  0  0  0  0  0  0  0  0  0
    9.6599   -4.1551   16.4796 N   0  0  0  0  0  0  0  0  0  0  0  0
    7.0644   -6.4612   15.7375 N   0  0  0  0  0  0  0  0  0  0  0  0
    5.3549   -9.6322   18.3190 C   0  0  0  0  0  0  0  0  0  0  0  0
   10.3704   -4.9638   18.6510 C   0  0  0  0  0  0  0  0  0  0  0  0
    5.5935   -8.6419   17.4234 C   0  0  0  0  0  0  0  0  0  0  0  0
   13.0726   -4.6648   23.3394 O   0  0  0  0  0  0  0  0  0  0  0  0
    8.5955   -6.0705   17.3996 C   0  0  0  0  0  0  0  0  0  0  0  0
    4.6223   -8.3832   16.5030 C   0  0  0  0  0  0  0  0  0  0  0  0
   12.4690   -5.2624   19.9024 C   0  0  0  0  0  0  0  0  0  0  0  0
    3.2548   -9.9919   17.4189 C   0  0  0  0  0  0  0  0  0  0  0  0
   12.4767   -4.7393   22.1790 C   0  0  0  0  0  0  0  0  0  0  0  0
    7.8593   -5.3772   15.3569 N   0  0  0  0  0  0  0  0  0  0  0  0
    7.4412   -6.9038   16.9283 C   0  0  0  0  0  0  0  0  0  0  0  0
  1 21  4  0
  1 23  4  0
  2  5  1  0
  2 13  4  0
  2 16  4  0
  3  6  4  0
  3  7  4  0
  4 13  4  0
  4 19  4  0
  4 24  4  0
  6 23  4  0
  7 16  1  0
  7 21  4  0
  8 18  1  0
  9 20  4  0
  9 22  4  0
 10 17  1  0
 10 25  1  0
 11 16  4  0
 11 19  4  0
 12 15  4  0
 12 22  4  0
 14 24  4  0
 14 25  4  0
 15 17  4  0
 17 20  4  0
 18 23  1  0
 19 25  4  0
M  END
$$$$

 Created by Python create_sdf_string function

 25 28  0  0  0  0  0  0  0  0999 V2000
   13.1533   -5.2399   21.0682 C   0  0  0  0  0  0  0  0  0  0  0  0
   10.4729   -4.0295   17.6135 C   0  0  0  0  0  0  0  0  0  0  0  0
   10.4789   -4.3641   20.9564 C   0  0  0  0  0  0  0  0  0  0  0  0
    8.7421   -5.1412   16.3650 C   0  0  0  0  0  0  0  0  0  0  0  0
   11.4353   -2.9204   17.8044 C   0  0  0  0  0  0  0  0  0  0  0  0
   11.1529   -4.3028   22.1277 C   0  0  0  0  0  0  0  0  0  0  0  0
   11.1290   -4.8502   19.8052 C   0  0  0  0  0  0  0  0  0  0  0  0
   12.4329   -4.2159   24.4224 C   0  0  0  0  0  0  0  0  0  0  0  0
    3.4740   -9.0387   16.5022 C   0  0  0  0  0  0  0  0  0  0  0  0
    6.8384   -7.9290   17.5282 N   0  0  0  0  0  0  0  0  0  0  0  0
    9.4126   -5.9853   18.4899 C   0  0  0  0  0  0  0  0  0  0  0  0
    4.2064  -10.3242   18.3302 C   0  0  0  0  0  0  0  0  0  0  0  0
    9.6599   -4.1551   16.4796 N   0  0  0  0  0  0  0  0  0  0  0  0
    7.0644   -6.4612   15.7375 N   0  0  0  0  0  0  0  0  0  0  0  0
    5.3549   -9.6322   18.3190 C   0  0  0  0  0  0  0  0  0  0  0  0
   10.3704   -4.9638   18.6510 C   0  0  0  0  0  0  0  0  0  0  0  0
    5.5935   -8.6419   17.4234 C   0  0  0  0  0  0  0  0  0  0  0  0
   13.0726   -4.6648   23.3394 O   0  0  0  0  0  0  0  0  0  0  0  0
    8.5955   -6.0705   17.3996 C   0  0  0  0  0  0  0  0  0  0  0  0
    4.6223   -8.3832   16.5030 C   0  0  0  0  0  0  0  0  0  0  0  0
   12.4690   -5.2624   19.9024 C   0  0  0  0  0  0  0  0  0  0  0  0
    3.2548   -9.9919   17.4189 C   0  0  0  0  0  0  0  0  0  0  0  0
   12.4767   -4.7393   22.1790 C   0  0  0  0  0  0  0  0  0  0  0  0
    7.8593   -5.3772   15.3569 N   0  0  0  0  0  0  0  0  0  0  0  0
    7.4412   -6.9038   16.9283 C   0  0  0  0  0  0  0  0  0  0  0  0
  1 21  4  0
  1 23  4  0
  2  5  1  0
  2 13  4  0
  2 16  4  0
  3  6  4  0
  3  7  4  0
  4 13  4  0
  4 19  4  0
  4 24  4  0
  6 23  4  0
  7 16  1  0
  7 21  4  0
  8 18  1  0
  9 20  4  0
  9 22  4  0
 10 17  1  0
 10 25  1  0
 11 16  4  0
 11 19  4  0
 12 15  4  0
 12 22  4  0
 14 24  4  0
 14 25  4  0
 15 17  4  0
 17 20  4  0
 18 23  1  0
 19 25  4  0
M  END
$$$$

 Created by Python create_sdf_string function

 25 28  0  0  0  0  0  0  0  0999 V2000
   13.1533   -5.2399   21.0682 C   0  0  0  0  0  0  0  0  0  0  0  0
   10.4729   -4.0295   17.6135 C   0  0  0  0  0  0  0  0  0  0  0  0
   10.4789   -4.3641   20.9564 C   0  0  0  0  0  0  0  0  0  0  0  0
    8.7421   -5.1412   16.3650 C   0  0  0  0  0  0  0  0  0  0  0  0
   11.4353   -2.9204   17.8044 C   0  0  0  0  0  0  0  0  0  0  0  0
   11.1529   -4.3028   22.1277 C   0  0  0  0  0  0  0  0  0  0  0  0
   11.1290   -4.8502   19.8052 C   0  0  0  0  0  0  0  0  0  0  0  0
   12.4329   -4.2159   24.4224 C   0  0  0  0  0  0  0  0  0  0  0  0
    3.4740   -9.0387   16.5022 C   0  0  0  0  0  0  0  0  0  0  0  0
    6.8384   -7.9290   17.5282 N   0  0  0  0  0  0  0  0  0  0  0  0
    9.4126   -5.9853   18.4899 C   0  0  0  0  0  0  0  0  0  0  0  0
    4.2064  -10.3242   18.3302 C   0  0  0  0  0  0  0  0  0  0  0  0
    9.6599   -4.1551   16.4796 N   0  0  0  0  0  0  0  0  0  0  0  0
    7.0644   -6.4612   15.7375 N   0  0  0  0  0  0  0  0  0  0  0  0
    5.3549   -9.6322   18.3190 C   0  0  0  0  0  0  0  0  0  0  0  0
   10.3704   -4.9638   18.6510 C   0  0  0  0  0  0  0  0  0  0  0  0
    5.5935   -8.6419   17.4234 C   0  0  0  0  0  0  0  0  0  0  0  0
   13.0726   -4.6648   23.3394 O   0  0  0  0  0  0  0  0  0  0  0  0
    8.5955   -6.0705   17.3996 C   0  0  0  0  0  0  0  0  0  0  0  0
    4.6223   -8.3832   16.5030 C   0  0  0  0  0  0  0  0  0  0  0  0
   12.4690   -5.2624   19.9024 C   0  0  0  0  0  0  0  0  0  0  0  0
    3.2548   -9.9919   17.4189 C   0  0  0  0  0  0  0  0  0  0  0  0
   12.4767   -4.7393   22.1790 C   0  0  0  0  0  0  0  0  0  0  0  0
    7.8593   -5.3772   15.3569 N   0  0  0  0  0  0  0  0  0  0  0  0
    7.4412   -6.9038   16.9283 C   0  0  0  0  0  0  0  0  0  0  0  0
  1 21  4  0
  1 23  4  0
  2  5  1  0
  2 13  4  0
  2 16  4  0
  3  6  4  0
  3  7  4  0
  4 13  4  0
  4 19  4  0
  4 24  4  0
  6 23  4  0
  7 16  1  0
  7 21  4  0
  8 18  1  0
  9 20  4  0
  9 22  4  0
 10 17  1  0
 10 25  1  0
 11 16  4  0
 11 19  4  0
 12 15  4  0
 12 22  4  0
 14 24  4  0
 14 25  4  0
 15 17  4  0
 17 20  4  0
 18 23  1  0
 19 25  4  0
M  END
$$$$

 Created by Python create_sdf_string function

 25 28  0  0  0  0  0  0  0  0999 V2000
   13.1533   -5.2399   21.0682 C   0  0  0  0  0  0  0  0  0  0  0  0
   10.4729   -4.0295   17.6135 C   0  0  0  0  0  0  0  0  0  0  0  0
   10.4789   -4.3641   20.9564 C   0  0  0  0  0  0  0  0  0  0  0  0
    8.7421   -5.1412   16.3650 C   0  0  0  0  0  0  0  0  0  0  0  0
   11.4353   -2.9204   17.8044 C   0  0  0  0  0  0  0  0  0  0  0  0
   11.1529   -4.3028   22.1277 C   0  0  0  0  0  0  0  0  0  0  0  0
   11.1290   -4.8502   19.8052 C   0  0  0  0  0  0  0  0  0  0  0  0
   12.4329   -4.2159   24.4224 C   0  0  0  0  0  0  0  0  0  0  0  0
    3.4740   -9.0387   16.5022 C   0  0  0  0  0  0  0  0  0  0  0  0
    6.8384   -7.9290   17.5282 N   0  0  0  0  0  0  0  0  0  0  0  0
    9.4126   -5.9853   18.4899 C   0  0  0  0  0  0  0  0  0  0  0  0
    4.2064  -10.3242   18.3302 C   0  0  0  0  0  0  0  0  0  0  0  0
    9.6599   -4.1551   16.4796 N   0  0  0  0  0  0  0  0  0  0  0  0
    7.0644   -6.4612   15.7375 N   0  0  0  0  0  0  0  0  0  0  0  0
    5.3549   -9.6322   18.3190 C   0  0  0  0  0  0  0  0  0  0  0  0
   10.3704   -4.9638   18.6510 C   0  0  0  0  0  0  0  0  0  0  0  0
    5.5935   -8.6419   17.4234 C   0  0  0  0  0  0  0  0  0  0  0  0
   13.0726   -4.6648   23.3394 O   0  0  0  0  0  0  0  0  0  0  0  0
    8.5955   -6.0705   17.3996 C   0  0  0  0  0  0  0  0  0  0  0  0
    4.6223   -8.3832   16.5030 C   0  0  0  0  0  0  0  0  0  0  0  0
   12.4690   -5.2624   19.9024 C   0  0  0  0  0  0  0  0  0  0  0  0
    3.2548   -9.9919   17.4189 C   0  0  0  0  0  0  0  0  0  0  0  0
   12.4767   -4.7393   22.1790 C   0  0  0  0  0  0  0  0  0  0  0  0
    7.8593   -5.3772   15.3569 N   0  0  0  0  0  0  0  0  0  0  0  0
    7.4412   -6.9038   16.9283 C   0  0  0  0  0  0  0  0  0  0  0  0
  1 21  4  0
  1 23  4  0
  2  5  1  0
  2 13  4  0
  2 16  4  0
  3  6  4  0
  3  7  4  0
  4 13  4  0
  4 19  4  0
  4 24  4  0
  6 23  4  0
  7 16  1  0
  7 21  4  0
  8 18  1  0
  9 20  4  0
  9 22  4  0
 10 17  1  0
 10 25  1  0
 11 16  4  0
 11 19  4  0
 12 15  4  0
 12 22  4  0
 14 24  4  0
 14 25  4  0
 15 17  4  0
 17 20  4  0
 18 23  1  0
 19 25  4  0
M  END
$$$$

 Created by Python create_sdf_string function

 25 28  0  0  0  0  0  0  0  0999 V2000
   13.1533   -5.2399   21.0682 C   0  0  0  0  0  0  0  0  0  0  0  0
   10.4729   -4.0295   17.6135 C   0  0  0  0  0  0  0  0  0  0  0  0
   10.4789   -4.3641   20.9564 C   0  0  0  0  0  0  0  0  0  0  0  0
    8.7421   -5.1412   16.3650 C   0  0  0  0  0  0  0  0  0  0  0  0
   11.4353   -2.9204   17.8044 C   0  0  0  0  0  0  0  0  0  0  0  0
   11.1529   -4.3028   22.1277 C   0  0  0  0  0  0  0  0  0  0  0  0
   11.1290   -4.8502   19.8052 C   0  0  0  0  0  0  0  0  0  0  0  0
   12.4329   -4.2159   24.4224 C   0  0  0  0  0  0  0  0  0  0  0  0
    3.4740   -9.0387   16.5022 C   0  0  0  0  0  0  0  0  0  0  0  0
    6.8384   -7.9290   17.5282 N   0  0  0  0  0  0  0  0  0  0  0  0
    9.4126   -5.9853   18.4899 C   0  0  0  0  0  0  0  0  0  0  0  0
    4.2064  -10.3242   18.3302 C   0  0  0  0  0  0  0  0  0  0  0  0
    9.6599   -4.1551   16.4796 N   0  0  0  0  0  0  0  0  0  0  0  0
    7.0644   -6.4612   15.7375 N   0  0  0  0  0  0  0  0  0  0  0  0
    5.3549   -9.6322   18.3190 C   0  0  0  0  0  0  0  0  0  0  0  0
   10.3704   -4.9638   18.6510 C   0  0  0  0  0  0  0  0  0  0  0  0
    5.5935   -8.6419   17.4234 C   0  0  0  0  0  0  0  0  0  0  0  0
   13.0726   -4.6648   23.3394 O   0  0  0  0  0  0  0  0  0  0  0  0
    8.5955   -6.0705   17.3996 C   0  0  0  0  0  0  0  0  0  0  0  0
    4.6223   -8.3832   16.5030 C   0  0  0  0  0  0  0  0  0  0  0  0
   12.4690   -5.2624   19.9024 C   0  0  0  0  0  0  0  0  0  0  0  0
    3.2548   -9.9919   17.4189 C   0  0  0  0  0  0  0  0  0  0  0  0
   12.4767   -4.7393   22.1790 C   0  0  0  0  0  0  0  0  0  0  0  0
    7.8593   -5.3772   15.3569 N   0  0  0  0  0  0  0  0  0  0  0  0
    7.4412   -6.9038   16.9283 C   0  0  0  0  0  0  0  0  0  0  0  0
  1 21  4  0
  1 23  4  0
  2  5  1  0
  2 13  4  0
  2 16  4  0
  3  6  4  0
  3  7  4  0
  4 13  4  0
  4 19  4  0
  4 24  4  0
  6 23  4  0
  7 16  1  0
  7 21  4  0
  8 18  1  0
  9 20  4  0
  9 22  4  0
 10 17  1  0
 10 25  1  0
 11 16  4  0
 11 19  4  0
 12 15  4  0
 12 22  4  0
 14 24  4  0
 14 25  4  0
 15 17  4  0
 17 20  4  0
 18 23  1  0
 19 25  4  0
M  END
$$$$

 Created by Python create_sdf_string function

 25 28  0  0  0  0  0  0  0  0999 V2000
   13.1533   -5.2399   21.0682 C   0  0  0  0  0  0  0  0  0  0  0  0
   10.4729   -4.0295   17.6135 C   0  0  0  0  0  0  0  0  0  0  0  0
   10.4789   -4.3641   20.9564 C   0  0  0  0  0  0  0  0  0  0  0  0
    8.7421   -5.1412   16.3650 C   0  0  0  0  0  0  0  0  0  0  0  0
   11.4353   -2.9204   17.8044 C   0  0  0  0  0  0  0  0  0  0  0  0
   11.1529   -4.3028   22.1277 C   0  0  0  0  0  0  0  0  0  0  0  0
   11.1290   -4.8502   19.8052 C   0  0  0  0  0  0  0  0  0  0  0  0
   12.4329   -4.2159   24.4224 C   0  0  0  0  0  0  0  0  0  0  0  0
    3.4740   -9.0387   16.5022 C   0  0  0  0  0  0  0  0  0  0  0  0
    6.8384   -7.9290   17.5282 N   0  0  0  0  0  0  0  0  0  0  0  0
    9.4126   -5.9853   18.4899 C   0  0  0  0  0  0  0  0  0  0  0  0
    4.2064  -10.3242   18.3302 C   0  0  0  0  0  0  0  0  0  0  0  0
    9.6599   -4.1551   16.4796 N   0  0  0  0  0  0  0  0  0  0  0  0
    7.0644   -6.4612   15.7375 N   0  0  0  0  0  0  0  0  0  0  0  0
    5.3549   -9.6322   18.3190 C   0  0  0  0  0  0  0  0  0  0  0  0
   10.3704   -4.9638   18.6510 C   0  0  0  0  0  0  0  0  0  0  0  0
    5.5935   -8.6419   17.4234 C   0  0  0  0  0  0  0  0  0  0  0  0
   13.0726   -4.6648   23.3394 O   0  0  0  0  0  0  0  0  0  0  0  0
    8.5955   -6.0705   17.3996 C   0  0  0  0  0  0  0  0  0  0  0  0
    4.6223   -8.3832   16.5030 C   0  0  0  0  0  0  0  0  0  0  0  0
   12.4690   -5.2624   19.9024 C   0  0  0  0  0  0  0  0  0  0  0  0
    3.2548   -9.9919   17.4189 C   0  0  0  0  0  0  0  0  0  0  0  0
   12.4767   -4.7393   22.1790 C   0  0  0  0  0  0  0  0  0  0  0  0
    7.8593   -5.3772   15.3569 N   0  0  0  0  0  0  0  0  0  0  0  0
    7.4412   -6.9038   16.9283 C   0  0  0  0  0  0  0  0  0  0  0  0
  1 21  4  0
  1 23  4  0
  2  5  1  0
  2 13  4  0
  2 16  4  0
  3  6  4  0
  3  7  4  0
  4 13  4  0
  4 19  4  0
  4 24  4  0
  6 23  4  0
  7 16  1  0
  7 21  4  0
  8 18  1  0
  9 20  4  0
  9 22  4  0
 10 17  1  0
 10 25  1  0
 11 16  4  0
 11 19  4  0
 12 15  4  0
 12 22  4  0
 14 24  4  0
 14 25  4  0
 15 17  4  0
 17 20  4  0
 18 23  1  0
 19 25  4  0
M  END
$$$$

 Created by Python create_sdf_string function

 25 28  0  0  0  0  0  0  0  0999 V2000
   13.1533   -5.2399   21.0682 C   0  0  0  0  0  0  0  0  0  0  0  0
   10.4729   -4.0295   17.6135 C   0  0  0  0  0  0  0  0  0  0  0  0
   10.4789   -4.3641   20.9564 C   0  0  0  0  0  0  0  0  0  0  0  0
    8.7421   -5.1412   16.3650 C   0  0  0  0  0  0  0  0  0  0  0  0
   11.4353   -2.9204   17.8044 C   0  0  0  0  0  0  0  0  0  0  0  0
   11.1529   -4.3028   22.1277 C   0  0  0  0  0  0  0  0  0  0  0  0
   11.1290   -4.8502   19.8052 C   0  0  0  0  0  0  0  0  0  0  0  0
   12.4329   -4.2159   24.4224 C   0  0  0  0  0  0  0  0  0  0  0  0
    3.4740   -9.0387   16.5022 C   0  0  0  0  0  0  0  0  0  0  0  0
    6.8384   -7.9290   17.5282 N   0  0  0  0  0  0  0  0  0  0  0  0
    9.4126   -5.9853   18.4899 C   0  0  0  0  0  0  0  0  0  0  0  0
    4.2064  -10.3242   18.3302 C   0  0  0  0  0  0  0  0  0  0  0  0
    9.6599   -4.1551   16.4796 N   0  0  0  0  0  0  0  0  0  0  0  0
    7.0644   -6.4612   15.7375 N   0  0  0  0  0  0  0  0  0  0  0  0
    5.3549   -9.6322   18.3190 C   0  0  0  0  0  0  0  0  0  0  0  0
   10.3704   -4.9638   18.6510 C   0  0  0  0  0  0  0  0  0  0  0  0
    5.5935   -8.6419   17.4234 C   0  0  0  0  0  0  0  0  0  0  0  0
   13.0726   -4.6648   23.3394 O   0  0  0  0  0  0  0  0  0  0  0  0
    8.5955   -6.0705   17.3996 C   0  0  0  0  0  0  0  0  0  0  0  0
    4.6223   -8.3832   16.5030 C   0  0  0  0  0  0  0  0  0  0  0  0
   12.4690   -5.2624   19.9024 C   0  0  0  0  0  0  0  0  0  0  0  0
    3.2548   -9.9919   17.4189 C   0  0  0  0  0  0  0  0  0  0  0  0
   12.4767   -4.7393   22.1790 C   0  0  0  0  0  0  0  0  0  0  0  0
    7.8593   -5.3772   15.3569 N   0  0  0  0  0  0  0  0  0  0  0  0
    7.4412   -6.9038   16.9283 C   0  0  0  0  0  0  0  0  0  0  0  0
  1 21  4  0
  1 23  4  0
  2  5  1  0
  2 13  4  0
  2 16  4  0
  3  6  4  0
  3  7  4  0
  4 13  4  0
  4 19  4  0
  4 24  4  0
  6 23  4  0
  7 16  1  0
  7 21  4  0
  8 18  1  0
  9 20  4  0
  9 22  4  0
 10 17  1  0
 10 25  1  0
 11 16  4  0
 11 19  4  0
 12 15  4  0
 12 22  4  0
 14 24  4  0
 14 25  4  0
 15 17  4  0
 17 20  4  0
 18 23  1  0
 19 25  4  0
M  END
$$$$

 Created by Python create_sdf_string function

 25 28  0  0  0  0  0  0  0  0999 V2000
   13.1533   -5.2399   21.0682 C   0  0  0  0  0  0  0  0  0  0  0  0
   10.4729   -4.0295   17.6135 C   0  0  0  0  0  0  0  0  0  0  0  0
   10.4789   -4.3641   20.9564 C   0  0  0  0  0  0  0  0  0  0  0  0
    8.7421   -5.1412   16.3650 C   0  0  0  0  0  0  0  0  0  0  0  0
   11.4353   -2.9204   17.8044 C   0  0  0  0  0  0  0  0  0  0  0  0
   11.1529   -4.3028   22.1277 C   0  0  0  0  0  0  0  0  0  0  0  0
   11.1290   -4.8502   19.8052 C   0  0  0  0  0  0  0  0  0  0  0  0
   12.4329   -4.2159   24.4224 C   0  0  0  0  0  0  0  0  0  0  0  0
    3.4740   -9.0387   16.5022 C   0  0  0  0  0  0  0  0  0  0  0  0
    6.8384   -7.9290   17.5282 N   0  0  0  0  0  0  0  0  0  0  0  0
    9.4126   -5.9853   18.4899 C   0  0  0  0  0  0  0  0  0  0  0  0
    4.2064  -10.3242   18.3302 C   0  0  0  0  0  0  0  0  0  0  0  0
    9.6599   -4.1551   16.4796 N   0  0  0  0  0  0  0  0  0  0  0  0
    7.0644   -6.4612   15.7375 N   0  0  0  0  0  0  0  0  0  0  0  0
    5.3549   -9.6322   18.3190 C   0  0  0  0  0  0  0  0  0  0  0  0
   10.3704   -4.9638   18.6510 C   0  0  0  0  0  0  0  0  0  0  0  0
    5.5935   -8.6419   17.4234 C   0  0  0  0  0  0  0  0  0  0  0  0
   13.0726   -4.6648   23.3394 O   0  0  0  0  0  0  0  0  0  0  0  0
    8.5955   -6.0705   17.3996 C   0  0  0  0  0  0  0  0  0  0  0  0
    4.6223   -8.3832   16.5030 C   0  0  0  0  0  0  0  0  0  0  0  0
   12.4690   -5.2624   19.9024 C   0  0  0  0  0  0  0  0  0  0  0  0
    3.2548   -9.9919   17.4189 C   0  0  0  0  0  0  0  0  0  0  0  0
   12.4767   -4.7393   22.1790 C   0  0  0  0  0  0  0  0  0  0  0  0
    7.8593   -5.3772   15.3569 N   0  0  0  0  0  0  0  0  0  0  0  0
    7.4412   -6.9038   16.9283 C   0  0  0  0  0  0  0  0  0  0  0  0
  1 21  4  0
  1 23  4  0
  2  5  1  0
  2 13  4  0
  2 16  4  0
  3  6  4  0
  3  7  4  0
  4 13  4  0
  4 19  4  0
  4 24  4  0
  6 23  4  0
  7 16  1  0
  7 21  4  0
  8 18  1  0
  9 20  4  0
  9 22  4  0
 10 17  1  0
 10 25  1  0
 11 16  4  0
 11 19  4  0
 12 15  4  0
 12 22  4  0
 14 24  4  0
 14 25  4  0
 15 17  4  0
 17 20  4  0
 18 23  1  0
 19 25  4  0
M  END
$$$$

 Created by Python create_sdf_string function

 25 28  0  0  0  0  0  0  0  0999 V2000
   13.1533   -5.2399   21.0682 C   0  0  0  0  0  0  0  0  0  0  0  0
   10.4729   -4.0295   17.6135 C   0  0  0  0  0  0  0  0  0  0  0  0
   10.4789   -4.3641   20.9564 C   0  0  0  0  0  0  0  0  0  0  0  0
    8.7421   -5.1412   16.3650 C   0  0  0  0  0  0  0  0  0  0  0  0
   11.4353   -2.9204   17.8044 C   0  0  0  0  0  0  0  0  0  0  0  0
   11.1529   -4.3028   22.1277 C   0  0  0  0  0  0  0  0  0  0  0  0
   11.1290   -4.8502   19.8052 C   0  0  0  0  0  0  0  0  0  0  0  0
   12.4329   -4.2159   24.4224 C   0  0  0  0  0  0  0  0  0  0  0  0
    3.4740   -9.0387   16.5022 C   0  0  0  0  0  0  0  0  0  0  0  0
    6.8384   -7.9290   17.5282 N   0  0  0  0  0  0  0  0  0  0  0  0
    9.4126   -5.9853   18.4899 C   0  0  0  0  0  0  0  0  0  0  0  0
    4.2064  -10.3242   18.3302 C   0  0  0  0  0  0  0  0  0  0  0  0
    9.6599   -4.1551   16.4796 N   0  0  0  0  0  0  0  0  0  0  0  0
    7.0644   -6.4612   15.7375 N   0  0  0  0  0  0  0  0  0  0  0  0
    5.3549   -9.6322   18.3190 C   0  0  0  0  0  0  0  0  0  0  0  0
   10.3704   -4.9638   18.6510 C   0  0  0  0  0  0  0  0  0  0  0  0
    5.5935   -8.6419   17.4234 C   0  0  0  0  0  0  0  0  0  0  0  0
   13.0726   -4.6648   23.3394 O   0  0  0  0  0  0  0  0  0  0  0  0
    8.5955   -6.0705   17.3996 C   0  0  0  0  0  0  0  0  0  0  0  0
    4.6223   -8.3832   16.5030 C   0  0  0  0  0  0  0  0  0  0  0  0
   12.4690   -5.2624   19.9024 C   0  0  0  0  0  0  0  0  0  0  0  0
    3.2548   -9.9919   17.4189 C   0  0  0  0  0  0  0  0  0  0  0  0
   12.4767   -4.7393   22.1790 C   0  0  0  0  0  0  0  0  0  0  0  0
    7.8593   -5.3772   15.3569 N   0  0  0  0  0  0  0  0  0  0  0  0
    7.4412   -6.9038   16.9283 C   0  0  0  0  0  0  0  0  0  0  0  0
  1 21  4  0
  1 23  4  0
  2  5  1  0
  2 13  4  0
  2 16  4  0
  3  6  4  0
  3  7  4  0
  4 13  4  0
  4 19  4  0
  4 24  4  0
  6 23  4  0
  7 16  1  0
  7 21  4  0
  8 18  1  0
  9 20  4  0
  9 22  4  0
 10 17  1  0
 10 25  1  0
 11 16  4  0
 11 19  4  0
 12 15  4  0
 12 22  4  0
 14 24  4  0
 14 25  4  0
 15 17  4  0
 17 20  4  0
 18 23  1  0
 19 25  4  0
M  END
$$$$

 Created by Python create_sdf_string function

 25 28  0  0  0  0  0  0  0  0999 V2000
   13.1533   -5.2399   21.0682 C   0  0  0  0  0  0  0  0  0  0  0  0
   10.4729   -4.0295   17.6135 C   0  0  0  0  0  0  0  0  0  0  0  0
   10.4789   -4.3641   20.9564 C   0  0  0  0  0  0  0  0  0  0  0  0
    8.7421   -5.1412   16.3650 C   0  0  0  0  0  0  0  0  0  0  0  0
   11.4353   -2.9204   17.8044 C   0  0  0  0  0  0  0  0  0  0  0  0
   11.1529   -4.3028   22.1277 C   0  0  0  0  0  0  0  0  0  0  0  0
   11.1290   -4.8502   19.8052 C   0  0  0  0  0  0  0  0  0  0  0  0
   12.4329   -4.2159   24.4224 C   0  0  0  0  0  0  0  0  0  0  0  0
    3.4740   -9.0387   16.5022 C   0  0  0  0  0  0  0  0  0  0  0  0
    6.8384   -7.9290   17.5282 N   0  0  0  0  0  0  0  0  0  0  0  0
    9.4126   -5.9853   18.4899 C   0  0  0  0  0  0  0  0  0  0  0  0
    4.2064  -10.3242   18.3302 C   0  0  0  0  0  0  0  0  0  0  0  0
    9.6599   -4.1551   16.4796 N   0  0  0  0  0  0  0  0  0  0  0  0
    7.0644   -6.4612   15.7375 N   0  0  0  0  0  0  0  0  0  0  0  0
    5.3549   -9.6322   18.3190 C   0  0  0  0  0  0  0  0  0  0  0  0
   10.3704   -4.9638   18.6510 C   0  0  0  0  0  0  0  0  0  0  0  0
    5.5935   -8.6419   17.4234 C   0  0  0  0  0  0  0  0  0  0  0  0
   13.0726   -4.6648   23.3394 O   0  0  0  0  0  0  0  0  0  0  0  0
    8.5955   -6.0705   17.3996 C   0  0  0  0  0  0  0  0  0  0  0  0
    4.6223   -8.3832   16.5030 C   0  0  0  0  0  0  0  0  0  0  0  0
   12.4690   -5.2624   19.9024 C   0  0  0  0  0  0  0  0  0  0  0  0
    3.2548   -9.9919   17.4189 C   0  0  0  0  0  0  0  0  0  0  0  0
   12.4767   -4.7393   22.1790 C   0  0  0  0  0  0  0  0  0  0  0  0
    7.8593   -5.3772   15.3569 N   0  0  0  0  0  0  0  0  0  0  0  0
    7.4412   -6.9038   16.9283 C   0  0  0  0  0  0  0  0  0  0  0  0
  1 21  4  0
  1 23  4  0
  2  5  1  0
  2 13  4  0
  2 16  4  0
  3  6  4  0
  3  7  4  0
  4 13  4  0
  4 19  4  0
  4 24  4  0
  6 23  4  0
  7 16  1  0
  7 21  4  0
  8 18  1  0
  9 20  4  0
  9 22  4  0
 10 17  1  0
 10 25  1  0
 11 16  4  0
 11 19  4  0
 12 15  4  0
 12 22  4  0
 14 24  4  0
 14 25  4  0
 15 17  4  0
 17 20  4  0
 18 23  1  0
 19 25  4  0
M  END
$$$$

 Created by Python create_sdf_string function

 25 28  0  0  0  0  0  0  0  0999 V2000
   13.1533   -5.2399   21.0682 C   0  0  0  0  0  0  0  0  0  0  0  0
   10.4729   -4.0295   17.6135 C   0  0  0  0  0  0  0  0  0  0  0  0
   10.4789   -4.3641   20.9564 C   0  0  0  0  0  0  0  0  0  0  0  0
    8.7421   -5.1412   16.3650 C   0  0  0  0  0  0  0  0  0  0  0  0
   11.4353   -2.9204   17.8044 C   0  0  0  0  0  0  0  0  0  0  0  0
   11.1529   -4.3028   22.1277 C   0  0  0  0  0  0  0  0  0  0  0  0
   11.1290   -4.8502   19.8052 C   0  0  0  0  0  0  0  0  0  0  0  0
   12.4329   -4.2159   24.4224 C   0  0  0  0  0  0  0  0  0  0  0  0
    3.4740   -9.0387   16.5022 C   0  0  0  0  0  0  0  0  0  0  0  0
    6.8384   -7.9290   17.5282 N   0  0  0  0  0  0  0  0  0  0  0  0
    9.4126   -5.9853   18.4899 C   0  0  0  0  0  0  0  0  0  0  0  0
    4.2064  -10.3242   18.3302 C   0  0  0  0  0  0  0  0  0  0  0  0
    9.6599   -4.1551   16.4796 N   0  0  0  0  0  0  0  0  0  0  0  0
    7.0644   -6.4612   15.7375 N   0  0  0  0  0  0  0  0  0  0  0  0
    5.3549   -9.6322   18.3190 C   0  0  0  0  0  0  0  0  0  0  0  0
   10.3704   -4.9638   18.6510 C   0  0  0  0  0  0  0  0  0  0  0  0
    5.5935   -8.6419   17.4234 C   0  0  0  0  0  0  0  0  0  0  0  0
   13.0726   -4.6648   23.3394 O   0  0  0  0  0  0  0  0  0  0  0  0
    8.5955   -6.0705   17.3996 C   0  0  0  0  0  0  0  0  0  0  0  0
    4.6223   -8.3832   16.5030 C   0  0  0  0  0  0  0  0  0  0  0  0
   12.4690   -5.2624   19.9024 C   0  0  0  0  0  0  0  0  0  0  0  0
    3.2548   -9.9919   17.4189 C   0  0  0  0  0  0  0  0  0  0  0  0
   12.4767   -4.7393   22.1790 C   0  0  0  0  0  0  0  0  0  0  0  0
    7.8593   -5.3772   15.3569 N   0  0  0  0  0  0  0  0  0  0  0  0
    7.4412   -6.9038   16.9283 C   0  0  0  0  0  0  0  0  0  0  0  0
  1 21  4  0
  1 23  4  0
  2  5  1  0
  2 13  4  0
  2 16  4  0
  3  6  4  0
  3  7  4  0
  4 13  4  0
  4 19  4  0
  4 24  4  0
  6 23  4  0
  7 16  1  0
  7 21  4  0
  8 18  1  0
  9 20  4  0
  9 22  4  0
 10 17  1  0
 10 25  1  0
 11 16  4  0
 11 19  4  0
 12 15  4  0
 12 22  4  0
 14 24  4  0
 14 25  4  0
 15 17  4  0
 17 20  4  0
 18 23  1  0
 19 25  4  0
M  END
$$$$

 Created by Python create_sdf_string function

 25 28  0  0  0  0  0  0  0  0999 V2000
   13.1533   -5.2399   21.0682 C   0  0  0  0  0  0  0  0  0  0  0  0
   10.4729   -4.0295   17.6135 C   0  0  0  0  0  0  0  0  0  0  0  0
   10.4789   -4.3641   20.9564 C   0  0  0  0  0  0  0  0  0  0  0  0
    8.7421   -5.1412   16.3650 C   0  0  0  0  0  0  0  0  0  0  0  0
   11.4353   -2.9204   17.8044 C   0  0  0  0  0  0  0  0  0  0  0  0
   11.1529   -4.3028   22.1277 C   0  0  0  0  0  0  0  0  0  0  0  0
   11.1290   -4.8502   19.8052 C   0  0  0  0  0  0  0  0  0  0  0  0
   12.4329   -4.2159   24.4224 C   0  0  0  0  0  0  0  0  0  0  0  0
    3.4740   -9.0387   16.5022 C   0  0  0  0  0  0  0  0  0  0  0  0
    6.8384   -7.9290   17.5282 N   0  0  0  0  0  0  0  0  0  0  0  0
    9.4126   -5.9853   18.4899 C   0  0  0  0  0  0  0  0  0  0  0  0
    4.2064  -10.3242   18.3302 C   0  0  0  0  0  0  0  0  0  0  0  0
    9.6599   -4.1551   16.4796 N   0  0  0  0  0  0  0  0  0  0  0  0
    7.0644   -6.4612   15.7375 N   0  0  0  0  0  0  0  0  0  0  0  0
    5.3549   -9.6322   18.3190 C   0  0  0  0  0  0  0  0  0  0  0  0
   10.3704   -4.9638   18.6510 C   0  0  0  0  0  0  0  0  0  0  0  0
    5.5935   -8.6419   17.4234 C   0  0  0  0  0  0  0  0  0  0  0  0
   13.0726   -4.6648   23.3394 O   0  0  0  0  0  0  0  0  0  0  0  0
    8.5955   -6.0705   17.3996 C   0  0  0  0  0  0  0  0  0  0  0  0
    4.6223   -8.3832   16.5030 C   0  0  0  0  0  0  0  0  0  0  0  0
   12.4690   -5.2624   19.9024 C   0  0  0  0  0  0  0  0  0  0  0  0
    3.2548   -9.9919   17.4189 C   0  0  0  0  0  0  0  0  0  0  0  0
   12.4767   -4.7393   22.1790 C   0  0  0  0  0  0  0  0  0  0  0  0
    7.8593   -5.3772   15.3569 N   0  0  0  0  0  0  0  0  0  0  0  0
    7.4412   -6.9038   16.9283 C   0  0  0  0  0  0  0  0  0  0  0  0
  1 21  4  0
  1 23  4  0
  2  5  1  0
  2 13  4  0
  2 16  4  0
  3  6  4  0
  3  7  4  0
  4 13  4  0
  4 19  4  0
  4 24  4  0
  6 23  4  0
  7 16  1  0
  7 21  4  0
  8 18  1  0
  9 20  4  0
  9 22  4  0
 10 17  1  0
 10 25  1  0
 11 16  4  0
 11 19  4  0
 12 15  4  0
 12 22  4  0
 14 24  4  0
 14 25  4  0
 15 17  4  0
 17 20  4  0
 18 23  1  0
 19 25  4  0
M  END
$$$$

 Created by Python create_sdf_string function

 25 28  0  0  0  0  0  0  0  0999 V2000
   13.1533   -5.2399   21.0682 C   0  0  0  0  0  0  0  0  0  0  0  0
   10.4729   -4.0295   17.6135 C   0  0  0  0  0  0  0  0  0  0  0  0
   10.4789   -4.3641   20.9564 C   0  0  0  0  0  0  0  0  0  0  0  0
    8.7421   -5.1412   16.3650 C   0  0  0  0  0  0  0  0  0  0  0  0
   11.4353   -2.9204   17.8044 C   0  0  0  0  0  0  0  0  0  0  0  0
   11.1529   -4.3028   22.1277 C   0  0  0  0  0  0  0  0  0  0  0  0
   11.1290   -4.8502   19.8052 C   0  0  0  0  0  0  0  0  0  0  0  0
   12.4329   -4.2159   24.4224 C   0  0  0  0  0  0  0  0  0  0  0  0
    3.4740   -9.0387   16.5022 C   0  0  0  0  0  0  0  0  0  0  0  0
    6.8384   -7.9290   17.5282 N   0  0  0  0  0  0  0  0  0  0  0  0
    9.4126   -5.9853   18.4899 C   0  0  0  0  0  0  0  0  0  0  0  0
    4.2064  -10.3242   18.3302 C   0  0  0  0  0  0  0  0  0  0  0  0
    9.6599   -4.1551   16.4796 N   0  0  0  0  0  0  0  0  0  0  0  0
    7.0644   -6.4612   15.7375 N   0  0  0  0  0  0  0  0  0  0  0  0
    5.3549   -9.6322   18.3190 C   0  0  0  0  0  0  0  0  0  0  0  0
   10.3704   -4.9638   18.6510 C   0  0  0  0  0  0  0  0  0  0  0  0
    5.5935   -8.6419   17.4234 C   0  0  0  0  0  0  0  0  0  0  0  0
   13.0726   -4.6648   23.3394 O   0  0  0  0  0  0  0  0  0  0  0  0
    8.5955   -6.0705   17.3996 C   0  0  0  0  0  0  0  0  0  0  0  0
    4.6223   -8.3832   16.5030 C   0  0  0  0  0  0  0  0  0  0  0  0
   12.4690   -5.2624   19.9024 C   0  0  0  0  0  0  0  0  0  0  0  0
    3.2548   -9.9919   17.4189 C   0  0  0  0  0  0  0  0  0  0  0  0
   12.4767   -4.7393   22.1790 C   0  0  0  0  0  0  0  0  0  0  0  0
    7.8593   -5.3772   15.3569 N   0  0  0  0  0  0  0  0  0  0  0  0
    7.4412   -6.9038   16.9283 C   0  0  0  0  0  0  0  0  0  0  0  0
  1 21  4  0
  1 23  4  0
  2  5  1  0
  2 13  4  0
  2 16  4  0
  3  6  4  0
  3  7  4  0
  4 13  4  0
  4 19  4  0
  4 24  4  0
  6 23  4  0
  7 16  1  0
  7 21  4  0
  8 18  1  0
  9 20  4  0
  9 22  4  0
 10 17  1  0
 10 25  1  0
 11 16  4  0
 11 19  4  0
 12 15  4  0
 12 22  4  0
 14 24  4  0
 14 25  4  0
 15 17  4  0
 17 20  4  0
 18 23  1  0
 19 25  4  0
M  END
$$$$

 Created by Python create_sdf_string function

 25 28  0  0  0  0  0  0  0  0999 V2000
   13.1533   -5.2399   21.0682 C   0  0  0  0  0  0  0  0  0  0  0  0
   10.4729   -4.0295   17.6135 C   0  0  0  0  0  0  0  0  0  0  0  0
   10.4789   -4.3641   20.9564 C   0  0  0  0  0  0  0  0  0  0  0  0
    8.7421   -5.1412   16.3650 C   0  0  0  0  0  0  0  0  0  0  0  0
   11.4353   -2.9204   17.8044 C   0  0  0  0  0  0  0  0  0  0  0  0
   11.1529   -4.3028   22.1277 C   0  0  0  0  0  0  0  0  0  0  0  0
   11.1290   -4.8502   19.8052 C   0  0  0  0  0  0  0  0  0  0  0  0
   12.4329   -4.2159   24.4224 C   0  0  0  0  0  0  0  0  0  0  0  0
    3.4740   -9.0387   16.5022 C   0  0  0  0  0  0  0  0  0  0  0  0
    6.8384   -7.9290   17.5282 N   0  0  0  0  0  0  0  0  0  0  0  0
    9.4126   -5.9853   18.4899 C   0  0  0  0  0  0  0  0  0  0  0  0
    4.2064  -10.3242   18.3302 C   0  0  0  0  0  0  0  0  0  0  0  0
    9.6599   -4.1551   16.4796 N   0  0  0  0  0  0  0  0  0  0  0  0
    7.0644   -6.4612   15.7375 N   0  0  0  0  0  0  0  0  0  0  0  0
    5.3549   -9.6322   18.3190 C   0  0  0  0  0  0  0  0  0  0  0  0
   10.3704   -4.9638   18.6510 C   0  0  0  0  0  0  0  0  0  0  0  0
    5.5935   -8.6419   17.4234 C   0  0  0  0  0  0  0  0  0  0  0  0
   13.0726   -4.6648   23.3394 O   0  0  0  0  0  0  0  0  0  0  0  0
    8.5955   -6.0705   17.3996 C   0  0  0  0  0  0  0  0  0  0  0  0
    4.6223   -8.3832   16.5030 C   0  0  0  0  0  0  0  0  0  0  0  0
   12.4690   -5.2624   19.9024 C   0  0  0  0  0  0  0  0  0  0  0  0
    3.2548   -9.9919   17.4189 C   0  0  0  0  0  0  0  0  0  0  0  0
   12.4767   -4.7393   22.1790 C   0  0  0  0  0  0  0  0  0  0  0  0
    7.8593   -5.3772   15.3569 N   0  0  0  0  0  0  0  0  0  0  0  0
    7.4412   -6.9038   16.9283 C   0  0  0  0  0  0  0  0  0  0  0  0
  1 21  4  0
  1 23  4  0
  2  5  1  0
  2 13  4  0
  2 16  4  0
  3  6  4  0
  3  7  4  0
  4 13  4  0
  4 19  4  0
  4 24  4  0
  6 23  4  0
  7 16  1  0
  7 21  4  0
  8 18  1  0
  9 20  4  0
  9 22  4  0
 10 17  1  0
 10 25  1  0
 11 16  4  0
 11 19  4  0
 12 15  4  0
 12 22  4  0
 14 24  4  0
 14 25  4  0
 15 17  4  0
 17 20  4  0
 18 23  1  0
 19 25  4  0
M  END
$$$$

 Created by Python create_sdf_string function

 25 28  0  0  0  0  0  0  0  0999 V2000
   13.1533   -5.2399   21.0682 C   0  0  0  0  0  0  0  0  0  0  0  0
   10.4729   -4.0295   17.6135 C   0  0  0  0  0  0  0  0  0  0  0  0
   10.4789   -4.3641   20.9564 C   0  0  0  0  0  0  0  0  0  0  0  0
    8.7421   -5.1412   16.3650 C   0  0  0  0  0  0  0  0  0  0  0  0
   11.4353   -2.9204   17.8044 C   0  0  0  0  0  0  0  0  0  0  0  0
   11.1529   -4.3028   22.1277 C   0  0  0  0  0  0  0  0  0  0  0  0
   11.1290   -4.8502   19.8052 C   0  0  0  0  0  0  0  0  0  0  0  0
   12.4329   -4.2159   24.4224 C   0  0  0  0  0  0  0  0  0  0  0  0
    3.4740   -9.0387   16.5022 C   0  0  0  0  0  0  0  0  0  0  0  0
    6.8384   -7.9290   17.5282 N   0  0  0  0  0  0  0  0  0  0  0  0
    9.4126   -5.9853   18.4899 C   0  0  0  0  0  0  0  0  0  0  0  0
    4.2064  -10.3242   18.3302 C   0  0  0  0  0  0  0  0  0  0  0  0
    9.6599   -4.1551   16.4796 N   0  0  0  0  0  0  0  0  0  0  0  0
    7.0644   -6.4612   15.7375 N   0  0  0  0  0  0  0  0  0  0  0  0
    5.3549   -9.6322   18.3190 C   0  0  0  0  0  0  0  0  0  0  0  0
   10.3704   -4.9638   18.6510 C   0  0  0  0  0  0  0  0  0  0  0  0
    5.5935   -8.6419   17.4234 C   0  0  0  0  0  0  0  0  0  0  0  0
   13.0726   -4.6648   23.3394 O   0  0  0  0  0  0  0  0  0  0  0  0
    8.5955   -6.0705   17.3996 C   0  0  0  0  0  0  0  0  0  0  0  0
    4.6223   -8.3832   16.5030 C   0  0  0  0  0  0  0  0  0  0  0  0
   12.4690   -5.2624   19.9024 C   0  0  0  0  0  0  0  0  0  0  0  0
    3.2548   -9.9919   17.4189 C   0  0  0  0  0  0  0  0  0  0  0  0
   12.4767   -4.7393   22.1790 C   0  0  0  0  0  0  0  0  0  0  0  0
    7.8593   -5.3772   15.3569 N   0  0  0  0  0  0  0  0  0  0  0  0
    7.4412   -6.9038   16.9283 C   0  0  0  0  0  0  0  0  0  0  0  0
  1 21  4  0
  1 23  4  0
  2  5  1  0
  2 13  4  0
  2 16  4  0
  3  6  4  0
  3  7  4  0
  4 13  4  0
  4 19  4  0
  4 24  4  0
  6 23  4  0
  7 16  1  0
  7 21  4  0
  8 18  1  0
  9 20  4  0
  9 22  4  0
 10 17  1  0
 10 25  1  0
 11 16  4  0
 11 19  4  0
 12 15  4  0
 12 22  4  0
 14 24  4  0
 14 25  4  0
 15 17  4  0
 17 20  4  0
 18 23  1  0
 19 25  4  0
M  END
$$$$

 Created by Python create_sdf_string function

 25 28  0  0  0  0  0  0  0  0999 V2000
   13.1533   -5.2399   21.0682 C   0  0  0  0  0  0  0  0  0  0  0  0
   10.4729   -4.0295   17.6135 C   0  0  0  0  0  0  0  0  0  0  0  0
   10.4789   -4.3641   20.9564 C   0  0  0  0  0  0  0  0  0  0  0  0
    8.7421   -5.1412   16.3650 C   0  0  0  0  0  0  0  0  0  0  0  0
   11.4353   -2.9204   17.8044 C   0  0  0  0  0  0  0  0  0  0  0  0
   11.1529   -4.3028   22.1277 C   0  0  0  0  0  0  0  0  0  0  0  0
   11.1290   -4.8502   19.8052 C   0  0  0  0  0  0  0  0  0  0  0  0
   12.4329   -4.2159   24.4224 C   0  0  0  0  0  0  0  0  0  0  0  0
    3.4740   -9.0387   16.5022 C   0  0  0  0  0  0  0  0  0  0  0  0
    6.8384   -7.9290   17.5282 N   0  0  0  0  0  0  0  0  0  0  0  0
    9.4126   -5.9853   18.4899 C   0  0  0  0  0  0  0  0  0  0  0  0
    4.2064  -10.3242   18.3302 C   0  0  0  0  0  0  0  0  0  0  0  0
    9.6599   -4.1551   16.4796 N   0  0  0  0  0  0  0  0  0  0  0  0
    7.0644   -6.4612   15.7375 N   0  0  0  0  0  0  0  0  0  0  0  0
    5.3549   -9.6322   18.3190 C   0  0  0  0  0  0  0  0  0  0  0  0
   10.3704   -4.9638   18.6510 C   0  0  0  0  0  0  0  0  0  0  0  0
    5.5935   -8.6419   17.4234 C   0  0  0  0  0  0  0  0  0  0  0  0
   13.0726   -4.6648   23.3394 O   0  0  0  0  0  0  0  0  0  0  0  0
    8.5955   -6.0705   17.3996 C   0  0  0  0  0  0  0  0  0  0  0  0
    4.6223   -8.3832   16.5030 C   0  0  0  0  0  0  0  0  0  0  0  0
   12.4690   -5.2624   19.9024 C   0  0  0  0  0  0  0  0  0  0  0  0
    3.2548   -9.9919   17.4189 C   0  0  0  0  0  0  0  0  0  0  0  0
   12.4767   -4.7393   22.1790 C   0  0  0  0  0  0  0  0  0  0  0  0
    7.8593   -5.3772   15.3569 N   0  0  0  0  0  0  0  0  0  0  0  0
    7.4412   -6.9038   16.9283 C   0  0  0  0  0  0  0  0  0  0  0  0
  1 21  4  0
  1 23  4  0
  2  5  1  0
  2 13  4  0
  2 16  4  0
  3  6  4  0
  3  7  4  0
  4 13  4  0
  4 19  4  0
  4 24  4  0
  6 23  4  0
  7 16  1  0
  7 21  4  0
  8 18  1  0
  9 20  4  0
  9 22  4  0
 10 17  1  0
 10 25  1  0
 11 16  4  0
 11 19  4  0
 12 15  4  0
 12 22  4  0
 14 24  4  0
 14 25  4  0
 15 17  4  0
 17 20  4  0
 18 23  1  0
 19 25  4  0
M  END
$$$$

 Created by Python create_sdf_string function

 25 28  0  0  0  0  0  0  0  0999 V2000
   13.1533   -5.2399   21.0682 C   0  0  0  0  0  0  0  0  0  0  0  0
   10.4729   -4.0295   17.6135 C   0  0  0  0  0  0  0  0  0  0  0  0
   10.4789   -4.3641   20.9564 C   0  0  0  0  0  0  0  0  0  0  0  0
    8.7421   -5.1412   16.3650 C   0  0  0  0  0  0  0  0  0  0  0  0
   11.4353   -2.9204   17.8044 C   0  0  0  0  0  0  0  0  0  0  0  0
   11.1529   -4.3028   22.1277 C   0  0  0  0  0  0  0  0  0  0  0  0
   11.1290   -4.8502   19.8052 C   0  0  0  0  0  0  0  0  0  0  0  0
   12.4329   -4.2159   24.4224 C   0  0  0  0  0  0  0  0  0  0  0  0
    3.4740   -9.0387   16.5022 C   0  0  0  0  0  0  0  0  0  0  0  0
    6.8384   -7.9290   17.5282 N   0  0  0  0  0  0  0  0  0  0  0  0
    9.4126   -5.9853   18.4899 C   0  0  0  0  0  0  0  0  0  0  0  0
    4.2064  -10.3242   18.3302 C   0  0  0  0  0  0  0  0  0  0  0  0
    9.6599   -4.1551   16.4796 N   0  0  0  0  0  0  0  0  0  0  0  0
    7.0644   -6.4612   15.7375 N   0  0  0  0  0  0  0  0  0  0  0  0
    5.3549   -9.6322   18.3190 C   0  0  0  0  0  0  0  0  0  0  0  0
   10.3704   -4.9638   18.6510 C   0  0  0  0  0  0  0  0  0  0  0  0
    5.5935   -8.6419   17.4234 C   0  0  0  0  0  0  0  0  0  0  0  0
   13.0726   -4.6648   23.3394 O   0  0  0  0  0  0  0  0  0  0  0  0
    8.5955   -6.0705   17.3996 C   0  0  0  0  0  0  0  0  0  0  0  0
    4.6223   -8.3832   16.5030 C   0  0  0  0  0  0  0  0  0  0  0  0
   12.4690   -5.2624   19.9024 C   0  0  0  0  0  0  0  0  0  0  0  0
    3.2548   -9.9919   17.4189 C   0  0  0  0  0  0  0  0  0  0  0  0
   12.4767   -4.7393   22.1790 C   0  0  0  0  0  0  0  0  0  0  0  0
    7.8593   -5.3772   15.3569 N   0  0  0  0  0  0  0  0  0  0  0  0
    7.4412   -6.9038   16.9283 C   0  0  0  0  0  0  0  0  0  0  0  0
  1 21  4  0
  1 23  4  0
  2  5  1  0
  2 13  4  0
  2 16  4  0
  3  6  4  0
  3  7  4  0
  4 13  4  0
  4 19  4  0
  4 24  4  0
  6 23  4  0
  7 16  1  0
  7 21  4  0
  8 18  1  0
  9 20  4  0
  9 22  4  0
 10 17  1  0
 10 25  1  0
 11 16  4  0
 11 19  4  0
 12 15  4  0
 12 22  4  0
 14 24  4  0
 14 25  4  0
 15 17  4  0
 17 20  4  0
 18 23  1  0
 19 25  4  0
M  END
$$$$

 Created by Python create_sdf_string function

 25 28  0  0  0  0  0  0  0  0999 V2000
   13.1533   -5.2399   21.0682 C   0  0  0  0  0  0  0  0  0  0  0  0
   10.4729   -4.0295   17.6135 C   0  0  0  0  0  0  0  0  0  0  0  0
   10.4789   -4.3641   20.9564 C   0  0  0  0  0  0  0  0  0  0  0  0
    8.7421   -5.1412   16.3650 C   0  0  0  0  0  0  0  0  0  0  0  0
   11.4353   -2.9204   17.8044 C   0  0  0  0  0  0  0  0  0  0  0  0
   11.1529   -4.3028   22.1277 C   0  0  0  0  0  0  0  0  0  0  0  0
   11.1290   -4.8502   19.8052 C   0  0  0  0  0  0  0  0  0  0  0  0
   12.4329   -4.2159   24.4224 C   0  0  0  0  0  0  0  0  0  0  0  0
    3.4740   -9.0387   16.5022 C   0  0  0  0  0  0  0  0  0  0  0  0
    6.8384   -7.9290   17.5282 N   0  0  0  0  0  0  0  0  0  0  0  0
    9.4126   -5.9853   18.4899 C   0  0  0  0  0  0  0  0  0  0  0  0
    4.2064  -10.3242   18.3302 C   0  0  0  0  0  0  0  0  0  0  0  0
    9.6599   -4.1551   16.4796 N   0  0  0  0  0  0  0  0  0  0  0  0
    7.0644   -6.4612   15.7375 N   0  0  0  0  0  0  0  0  0  0  0  0
    5.3549   -9.6322   18.3190 C   0  0  0  0  0  0  0  0  0  0  0  0
   10.3704   -4.9638   18.6510 C   0  0  0  0  0  0  0  0  0  0  0  0
    5.5935   -8.6419   17.4234 C   0  0  0  0  0  0  0  0  0  0  0  0
   13.0726   -4.6648   23.3394 O   0  0  0  0  0  0  0  0  0  0  0  0
    8.5955   -6.0705   17.3996 C   0  0  0  0  0  0  0  0  0  0  0  0
    4.6223   -8.3832   16.5030 C   0  0  0  0  0  0  0  0  0  0  0  0
   12.4690   -5.2624   19.9024 C   0  0  0  0  0  0  0  0  0  0  0  0
    3.2548   -9.9919   17.4189 C   0  0  0  0  0  0  0  0  0  0  0  0
   12.4767   -4.7393   22.1790 C   0  0  0  0  0  0  0  0  0  0  0  0
    7.8593   -5.3772   15.3569 N   0  0  0  0  0  0  0  0  0  0  0  0
    7.4412   -6.9038   16.9283 C   0  0  0  0  0  0  0  0  0  0  0  0
  1 21  4  0
  1 23  4  0
  2  5  1  0
  2 13  4  0
  2 16  4  0
  3  6  4  0
  3  7  4  0
  4 13  4  0
  4 19  4  0
  4 24  4  0
  6 23  4  0
  7 16  1  0
  7 21  4  0
  8 18  1  0
  9 20  4  0
  9 22  4  0
 10 17  1  0
 10 25  1  0
 11 16  4  0
 11 19  4  0
 12 15  4  0
 12 22  4  0
 14 24  4  0
 14 25  4  0
 15 17  4  0
 17 20  4  0
 18 23  1  0
 19 25  4  0
M  END
$$$$

 Created by Python create_sdf_string function

 25 28  0  0  0  0  0  0  0  0999 V2000
   13.1533   -5.2399   21.0682 C   0  0  0  0  0  0  0  0  0  0  0  0
   10.4729   -4.0295   17.6135 C   0  0  0  0  0  0  0  0  0  0  0  0
   10.4789   -4.3641   20.9564 C   0  0  0  0  0  0  0  0  0  0  0  0
    8.7421   -5.1412   16.3650 C   0  0  0  0  0  0  0  0  0  0  0  0
   11.4353   -2.9204   17.8044 C   0  0  0  0  0  0  0  0  0  0  0  0
   11.1529   -4.3028   22.1277 C   0  0  0  0  0  0  0  0  0  0  0  0
   11.1290   -4.8502   19.8052 C   0  0  0  0  0  0  0  0  0  0  0  0
   12.4329   -4.2159   24.4224 C   0  0  0  0  0  0  0  0  0  0  0  0
    3.4740   -9.0387   16.5022 C   0  0  0  0  0  0  0  0  0  0  0  0
    6.8384   -7.9290   17.5282 N   0  0  0  0  0  0  0  0  0  0  0  0
    9.4126   -5.9853   18.4899 C   0  0  0  0  0  0  0  0  0  0  0  0
    4.2064  -10.3242   18.3302 C   0  0  0  0  0  0  0  0  0  0  0  0
    9.6599   -4.1551   16.4796 N   0  0  0  0  0  0  0  0  0  0  0  0
    7.0644   -6.4612   15.7375 N   0  0  0  0  0  0  0  0  0  0  0  0
    5.3549   -9.6322   18.3190 C   0  0  0  0  0  0  0  0  0  0  0  0
   10.3704   -4.9638   18.6510 C   0  0  0  0  0  0  0  0  0  0  0  0
    5.5935   -8.6419   17.4234 C   0  0  0  0  0  0  0  0  0  0  0  0
   13.0726   -4.6648   23.3394 O   0  0  0  0  0  0  0  0  0  0  0  0
    8.5955   -6.0705   17.3996 C   0  0  0  0  0  0  0  0  0  0  0  0
    4.6223   -8.3832   16.5030 C   0  0  0  0  0  0  0  0  0  0  0  0
   12.4690   -5.2624   19.9024 C   0  0  0  0  0  0  0  0  0  0  0  0
    3.2548   -9.9919   17.4189 C   0  0  0  0  0  0  0  0  0  0  0  0
   12.4767   -4.7393   22.1790 C   0  0  0  0  0  0  0  0  0  0  0  0
    7.8593   -5.3772   15.3569 N   0  0  0  0  0  0  0  0  0  0  0  0
    7.4412   -6.9038   16.9283 C   0  0  0  0  0  0  0  0  0  0  0  0
  1 21  4  0
  1 23  4  0
  2  5  1  0
  2 13  4  0
  2 16  4  0
  3  6  4  0
  3  7  4  0
  4 13  4  0
  4 19  4  0
  4 24  4  0
  6 23  4  0
  7 16  1  0
  7 21  4  0
  8 18  1  0
  9 20  4  0
  9 22  4  0
 10 17  1  0
 10 25  1  0
 11 16  4  0
 11 19  4  0
 12 15  4  0
 12 22  4  0
 14 24  4  0
 14 25  4  0
 15 17  4  0
 17 20  4  0
 18 23  1  0
 19 25  4  0
M  END
$$$$

 Created by Python create_sdf_string function

 25 28  0  0  0  0  0  0  0  0999 V2000
   13.1533   -5.2399   21.0682 C   0  0  0  0  0  0  0  0  0  0  0  0
   10.4729   -4.0295   17.6135 C   0  0  0  0  0  0  0  0  0  0  0  0
   10.4789   -4.3641   20.9564 C   0  0  0  0  0  0  0  0  0  0  0  0
    8.7421   -5.1412   16.3650 C   0  0  0  0  0  0  0  0  0  0  0  0
   11.4353   -2.9204   17.8044 C   0  0  0  0  0  0  0  0  0  0  0  0
   11.1529   -4.3028   22.1277 C   0  0  0  0  0  0  0  0  0  0  0  0
   11.1290   -4.8502   19.8052 C   0  0  0  0  0  0  0  0  0  0  0  0
   12.4329   -4.2159   24.4224 C   0  0  0  0  0  0  0  0  0  0  0  0
    3.4740   -9.0387   16.5022 C   0  0  0  0  0  0  0  0  0  0  0  0
    6.8384   -7.9290   17.5282 N   0  0  0  0  0  0  0  0  0  0  0  0
    9.4126   -5.9853   18.4899 C   0  0  0  0  0  0  0  0  0  0  0  0
    4.2064  -10.3242   18.3302 C   0  0  0  0  0  0  0  0  0  0  0  0
    9.6599   -4.1551   16.4796 N   0  0  0  0  0  0  0  0  0  0  0  0
    7.0644   -6.4612   15.7375 N   0  0  0  0  0  0  0  0  0  0  0  0
    5.3549   -9.6322   18.3190 C   0  0  0  0  0  0  0  0  0  0  0  0
   10.3704   -4.9638   18.6510 C   0  0  0  0  0  0  0  0  0  0  0  0
    5.5935   -8.6419   17.4234 C   0  0  0  0  0  0  0  0  0  0  0  0
   13.0726   -4.6648   23.3394 O   0  0  0  0  0  0  0  0  0  0  0  0
    8.5955   -6.0705   17.3996 C   0  0  0  0  0  0  0  0  0  0  0  0
    4.6223   -8.3832   16.5030 C   0  0  0  0  0  0  0  0  0  0  0  0
   12.4690   -5.2624   19.9024 C   0  0  0  0  0  0  0  0  0  0  0  0
    3.2548   -9.9919   17.4189 C   0  0  0  0  0  0  0  0  0  0  0  0
   12.4767   -4.7393   22.1790 C   0  0  0  0  0  0  0  0  0  0  0  0
    7.8593   -5.3772   15.3569 N   0  0  0  0  0  0  0  0  0  0  0  0
    7.4412   -6.9038   16.9283 C   0  0  0  0  0  0  0  0  0  0  0  0
  1 21  4  0
  1 23  4  0
  2  5  1  0
  2 13  4  0
  2 16  4  0
  3  6  4  0
  3  7  4  0
  4 13  4  0
  4 19  4  0
  4 24  4  0
  6 23  4  0
  7 16  1  0
  7 21  4  0
  8 18  1  0
  9 20  4  0
  9 22  4  0
 10 17  1  0
 10 25  1  0
 11 16  4  0
 11 19  4  0
 12 15  4  0
 12 22  4  0
 14 24  4  0
 14 25  4  0
 15 17  4  0
 17 20  4  0
 18 23  1  0
 19 25  4  0
M  END
$$$$

 Created by Python create_sdf_string function

 25 28  0  0  0  0  0  0  0  0999 V2000
   13.1533   -5.2399   21.0682 C   0  0  0  0  0  0  0  0  0  0  0  0
   10.4729   -4.0295   17.6135 C   0  0  0  0  0  0  0  0  0  0  0  0
   10.4789   -4.3641   20.9564 C   0  0  0  0  0  0  0  0  0  0  0  0
    8.7421   -5.1412   16.3650 C   0  0  0  0  0  0  0  0  0  0  0  0
   11.4353   -2.9204   17.8044 C   0  0  0  0  0  0  0  0  0  0  0  0
   11.1529   -4.3028   22.1277 C   0  0  0  0  0  0  0  0  0  0  0  0
   11.1290   -4.8502   19.8052 C   0  0  0  0  0  0  0  0  0  0  0  0
   12.4329   -4.2159   24.4224 C   0  0  0  0  0  0  0  0  0  0  0  0
    3.4740   -9.0387   16.5022 C   0  0  0  0  0  0  0  0  0  0  0  0
    6.8384   -7.9290   17.5282 N   0  0  0  0  0  0  0  0  0  0  0  0
    9.4126   -5.9853   18.4899 C   0  0  0  0  0  0  0  0  0  0  0  0
    4.2064  -10.3242   18.3302 C   0  0  0  0  0  0  0  0  0  0  0  0
    9.6599   -4.1551   16.4796 N   0  0  0  0  0  0  0  0  0  0  0  0
    7.0644   -6.4612   15.7375 N   0  0  0  0  0  0  0  0  0  0  0  0
    5.3549   -9.6322   18.3190 C   0  0  0  0  0  0  0  0  0  0  0  0
   10.3704   -4.9638   18.6510 C   0  0  0  0  0  0  0  0  0  0  0  0
    5.5935   -8.6419   17.4234 C   0  0  0  0  0  0  0  0  0  0  0  0
   13.0726   -4.6648   23.3394 O   0  0  0  0  0  0  0  0  0  0  0  0
    8.5955   -6.0705   17.3996 C   0  0  0  0  0  0  0  0  0  0  0  0
    4.6223   -8.3832   16.5030 C   0  0  0  0  0  0  0  0  0  0  0  0
   12.4690   -5.2624   19.9024 C   0  0  0  0  0  0  0  0  0  0  0  0
    3.2548   -9.9919   17.4189 C   0  0  0  0  0  0  0  0  0  0  0  0
   12.4767   -4.7393   22.1790 C   0  0  0  0  0  0  0  0  0  0  0  0
    7.8593   -5.3772   15.3569 N   0  0  0  0  0  0  0  0  0  0  0  0
    7.4412   -6.9038   16.9283 C   0  0  0  0  0  0  0  0  0  0  0  0
  1 21  4  0
  1 23  4  0
  2  5  1  0
  2 13  4  0
  2 16  4  0
  3  6  4  0
  3  7  4  0
  4 13  4  0
  4 19  4  0
  4 24  4  0
  6 23  4  0
  7 16  1  0
  7 21  4  0
  8 18  1  0
  9 20  4  0
  9 22  4  0
 10 17  1  0
 10 25  1  0
 11 16  4  0
 11 19  4  0
 12 15  4  0
 12 22  4  0
 14 24  4  0
 14 25  4  0
 15 17  4  0
 17 20  4  0
 18 23  1  0
 19 25  4  0
M  END
$$$$

 Created by Python create_sdf_string function

 25 28  0  0  0  0  0  0  0  0999 V2000
   13.1533   -5.2399   21.0682 C   0  0  0  0  0  0  0  0  0  0  0  0
   10.4729   -4.0295   17.6135 C   0  0  0  0  0  0  0  0  0  0  0  0
   10.4789   -4.3641   20.9564 C   0  0  0  0  0  0  0  0  0  0  0  0
    8.7421   -5.1412   16.3650 C   0  0  0  0  0  0  0  0  0  0  0  0
   11.4353   -2.9204   17.8044 C   0  0  0  0  0  0  0  0  0  0  0  0
   11.1529   -4.3028   22.1277 C   0  0  0  0  0  0  0  0  0  0  0  0
   11.1290   -4.8502   19.8052 C   0  0  0  0  0  0  0  0  0  0  0  0
   12.4329   -4.2159   24.4224 C   0  0  0  0  0  0  0  0  0  0  0  0
    3.4740   -9.0387   16.5022 C   0  0  0  0  0  0  0  0  0  0  0  0
    6.8384   -7.9290   17.5282 N   0  0  0  0  0  0  0  0  0  0  0  0
    9.4126   -5.9853   18.4899 C   0  0  0  0  0  0  0  0  0  0  0  0
    4.2064  -10.3242   18.3302 C   0  0  0  0  0  0  0  0  0  0  0  0
    9.6599   -4.1551   16.4796 N   0  0  0  0  0  0  0  0  0  0  0  0
    7.0644   -6.4612   15.7375 N   0  0  0  0  0  0  0  0  0  0  0  0
    5.3549   -9.6322   18.3190 C   0  0  0  0  0  0  0  0  0  0  0  0
   10.3704   -4.9638   18.6510 C   0  0  0  0  0  0  0  0  0  0  0  0
    5.5935   -8.6419   17.4234 C   0  0  0  0  0  0  0  0  0  0  0  0
   13.0726   -4.6648   23.3394 O   0  0  0  0  0  0  0  0  0  0  0  0
    8.5955   -6.0705   17.3996 C   0  0  0  0  0  0  0  0  0  0  0  0
    4.6223   -8.3832   16.5030 C   0  0  0  0  0  0  0  0  0  0  0  0
   12.4690   -5.2624   19.9024 C   0  0  0  0  0  0  0  0  0  0  0  0
    3.2548   -9.9919   17.4189 C   0  0  0  0  0  0  0  0  0  0  0  0
   12.4767   -4.7393   22.1790 C   0  0  0  0  0  0  0  0  0  0  0  0
    7.8593   -5.3772   15.3569 N   0  0  0  0  0  0  0  0  0  0  0  0
    7.4412   -6.9038   16.9283 C   0  0  0  0  0  0  0  0  0  0  0  0
  1 21  4  0
  1 23  4  0
  2  5  1  0
  2 13  4  0
  2 16  4  0
  3  6  4  0
  3  7  4  0
  4 13  4  0
  4 19  4  0
  4 24  4  0
  6 23  4  0
  7 16  1  0
  7 21  4  0
  8 18  1  0
  9 20  4  0
  9 22  4  0
 10 17  1  0
 10 25  1  0
 11 16  4  0
 11 19  4  0
 12 15  4  0
 12 22  4  0
 14 24  4  0
 14 25  4  0
 15 17  4  0
 17 20  4  0
 18 23  1  0
 19 25  4  0
M  END
$$$$

 Created by Python create_sdf_string function

 25 28  0  0  0  0  0  0  0  0999 V2000
   13.1533   -5.2399   21.0682 C   0  0  0  0  0  0  0  0  0  0  0  0
   10.4729   -4.0295   17.6135 C   0  0  0  0  0  0  0  0  0  0  0  0
   10.4789   -4.3641   20.9564 C   0  0  0  0  0  0  0  0  0  0  0  0
    8.7421   -5.1412   16.3650 C   0  0  0  0  0  0  0  0  0  0  0  0
   11.4353   -2.9204   17.8044 C   0  0  0  0  0  0  0  0  0  0  0  0
   11.1529   -4.3028   22.1277 C   0  0  0  0  0  0  0  0  0  0  0  0
   11.1290   -4.8502   19.8052 C   0  0  0  0  0  0  0  0  0  0  0  0
   12.4329   -4.2159   24.4224 C   0  0  0  0  0  0  0  0  0  0  0  0
    3.4740   -9.0387   16.5022 C   0  0  0  0  0  0  0  0  0  0  0  0
    6.8384   -7.9290   17.5282 N   0  0  0  0  0  0  0  0  0  0  0  0
    9.4126   -5.9853   18.4899 C   0  0  0  0  0  0  0  0  0  0  0  0
    4.2064  -10.3242   18.3302 C   0  0  0  0  0  0  0  0  0  0  0  0
    9.6599   -4.1551   16.4796 N   0  0  0  0  0  0  0  0  0  0  0  0
    7.0644   -6.4612   15.7375 N   0  0  0  0  0  0  0  0  0  0  0  0
    5.3549   -9.6322   18.3190 C   0  0  0  0  0  0  0  0  0  0  0  0
   10.3704   -4.9638   18.6510 C   0  0  0  0  0  0  0  0  0  0  0  0
    5.5935   -8.6419   17.4234 C   0  0  0  0  0  0  0  0  0  0  0  0
   13.0726   -4.6648   23.3394 O   0  0  0  0  0  0  0  0  0  0  0  0
    8.5955   -6.0705   17.3996 C   0  0  0  0  0  0  0  0  0  0  0  0
    4.6223   -8.3832   16.5030 C   0  0  0  0  0  0  0  0  0  0  0  0
   12.4690   -5.2624   19.9024 C   0  0  0  0  0  0  0  0  0  0  0  0
    3.2548   -9.9919   17.4189 C   0  0  0  0  0  0  0  0  0  0  0  0
   12.4767   -4.7393   22.1790 C   0  0  0  0  0  0  0  0  0  0  0  0
    7.8593   -5.3772   15.3569 N   0  0  0  0  0  0  0  0  0  0  0  0
    7.4412   -6.9038   16.9283 C   0  0  0  0  0  0  0  0  0  0  0  0
  1 21  4  0
  1 23  4  0
  2  5  1  0
  2 13  4  0
  2 16  4  0
  3  6  4  0
  3  7  4  0
  4 13  4  0
  4 19  4  0
  4 24  4  0
  6 23  4  0
  7 16  1  0
  7 21  4  0
  8 18  1  0
  9 20  4  0
  9 22  4  0
 10 17  1  0
 10 25  1  0
 11 16  4  0
 11 19  4  0
 12 15  4  0
 12 22  4  0
 14 24  4  0
 14 25  4  0
 15 17  4  0
 17 20  4  0
 18 23  1  0
 19 25  4  0
M  END
$$$$

 Created by Python create_sdf_string function

 25 28  0  0  0  0  0  0  0  0999 V2000
   13.1533   -5.2399   21.0682 C   0  0  0  0  0  0  0  0  0  0  0  0
   10.4729   -4.0295   17.6135 C   0  0  0  0  0  0  0  0  0  0  0  0
   10.4789   -4.3641   20.9564 C   0  0  0  0  0  0  0  0  0  0  0  0
    8.7421   -5.1412   16.3650 C   0  0  0  0  0  0  0  0  0  0  0  0
   11.4353   -2.9204   17.8044 C   0  0  0  0  0  0  0  0  0  0  0  0
   11.1529   -4.3028   22.1277 C   0  0  0  0  0  0  0  0  0  0  0  0
   11.1290   -4.8502   19.8052 C   0  0  0  0  0  0  0  0  0  0  0  0
   12.4329   -4.2159   24.4224 C   0  0  0  0  0  0  0  0  0  0  0  0
    3.4740   -9.0387   16.5022 C   0  0  0  0  0  0  0  0  0  0  0  0
    6.8384   -7.9290   17.5282 N   0  0  0  0  0  0  0  0  0  0  0  0
    9.4126   -5.9853   18.4899 C   0  0  0  0  0  0  0  0  0  0  0  0
    4.2064  -10.3242   18.3302 C   0  0  0  0  0  0  0  0  0  0  0  0
    9.6599   -4.1551   16.4796 N   0  0  0  0  0  0  0  0  0  0  0  0
    7.0644   -6.4612   15.7375 N   0  0  0  0  0  0  0  0  0  0  0  0
    5.3549   -9.6322   18.3190 C   0  0  0  0  0  0  0  0  0  0  0  0
   10.3704   -4.9638   18.6510 C   0  0  0  0  0  0  0  0  0  0  0  0
    5.5935   -8.6419   17.4234 C   0  0  0  0  0  0  0  0  0  0  0  0
   13.0726   -4.6648   23.3394 O   0  0  0  0  0  0  0  0  0  0  0  0
    8.5955   -6.0705   17.3996 C   0  0  0  0  0  0  0  0  0  0  0  0
    4.6223   -8.3832   16.5030 C   0  0  0  0  0  0  0  0  0  0  0  0
   12.4690   -5.2624   19.9024 C   0  0  0  0  0  0  0  0  0  0  0  0
    3.2548   -9.9919   17.4189 C   0  0  0  0  0  0  0  0  0  0  0  0
   12.4767   -4.7393   22.1790 C   0  0  0  0  0  0  0  0  0  0  0  0
    7.8593   -5.3772   15.3569 N   0  0  0  0  0  0  0  0  0  0  0  0
    7.4412   -6.9038   16.9283 C   0  0  0  0  0  0  0  0  0  0  0  0
  1 21  4  0
  1 23  4  0
  2  5  1  0
  2 13  4  0
  2 16  4  0
  3  6  4  0
  3  7  4  0
  4 13  4  0
  4 19  4  0
  4 24  4  0
  6 23  4  0
  7 16  1  0
  7 21  4  0
  8 18  1  0
  9 20  4  0
  9 22  4  0
 10 17  1  0
 10 25  1  0
 11 16  4  0
 11 19  4  0
 12 15  4  0
 12 22  4  0
 14 24  4  0
 14 25  4  0
 15 17  4  0
 17 20  4  0
 18 23  1  0
 19 25  4  0
M  END
$$$$

 Created by Python create_sdf_string function

 25 28  0  0  0  0  0  0  0  0999 V2000
   13.1533   -5.2399   21.0682 C   0  0  0  0  0  0  0  0  0  0  0  0
   10.4729   -4.0295   17.6135 C   0  0  0  0  0  0  0  0  0  0  0  0
   10.4789   -4.3641   20.9564 C   0  0  0  0  0  0  0  0  0  0  0  0
    8.7421   -5.1412   16.3650 C   0  0  0  0  0  0  0  0  0  0  0  0
   11.4353   -2.9204   17.8044 C   0  0  0  0  0  0  0  0  0  0  0  0
   11.1529   -4.3028   22.1277 C   0  0  0  0  0  0  0  0  0  0  0  0
   11.1290   -4.8502   19.8052 C   0  0  0  0  0  0  0  0  0  0  0  0
   12.4329   -4.2159   24.4224 C   0  0  0  0  0  0  0  0  0  0  0  0
    3.4740   -9.0387   16.5022 C   0  0  0  0  0  0  0  0  0  0  0  0
    6.8384   -7.9290   17.5282 N   0  0  0  0  0  0  0  0  0  0  0  0
    9.4126   -5.9853   18.4899 C   0  0  0  0  0  0  0  0  0  0  0  0
    4.2064  -10.3242   18.3302 C   0  0  0  0  0  0  0  0  0  0  0  0
    9.6599   -4.1551   16.4796 N   0  0  0  0  0  0  0  0  0  0  0  0
    7.0644   -6.4612   15.7375 N   0  0  0  0  0  0  0  0  0  0  0  0
    5.3549   -9.6322   18.3190 C   0  0  0  0  0  0  0  0  0  0  0  0
   10.3704   -4.9638   18.6510 C   0  0  0  0  0  0  0  0  0  0  0  0
    5.5935   -8.6419   17.4234 C   0  0  0  0  0  0  0  0  0  0  0  0
   13.0726   -4.6648   23.3394 O   0  0  0  0  0  0  0  0  0  0  0  0
    8.5955   -6.0705   17.3996 C   0  0  0  0  0  0  0  0  0  0  0  0
    4.6223   -8.3832   16.5030 C   0  0  0  0  0  0  0  0  0  0  0  0
   12.4690   -5.2624   19.9024 C   0  0  0  0  0  0  0  0  0  0  0  0
    3.2548   -9.9919   17.4189 C   0  0  0  0  0  0  0  0  0  0  0  0
   12.4767   -4.7393   22.1790 C   0  0  0  0  0  0  0  0  0  0  0  0
    7.8593   -5.3772   15.3569 N   0  0  0  0  0  0  0  0  0  0  0  0
    7.4412   -6.9038   16.9283 C   0  0  0  0  0  0  0  0  0  0  0  0
  1 21  4  0
  1 23  4  0
  2  5  1  0
  2 13  4  0
  2 16  4  0
  3  6  4  0
  3  7  4  0
  4 13  4  0
  4 19  4  0
  4 24  4  0
  6 23  4  0
  7 16  1  0
  7 21  4  0
  8 18  1  0
  9 20  4  0
  9 22  4  0
 10 17  1  0
 10 25  1  0
 11 16  4  0
 11 19  4  0
 12 15  4  0
 12 22  4  0
 14 24  4  0
 14 25  4  0
 15 17  4  0
 17 20  4  0
 18 23  1  0
 19 25  4  0
M  END
$$$$

 Created by Python create_sdf_string function

 25 28  0  0  0  0  0  0  0  0999 V2000
   13.1533   -5.2399   21.0682 C   0  0  0  0  0  0  0  0  0  0  0  0
   10.4729   -4.0295   17.6135 C   0  0  0  0  0  0  0  0  0  0  0  0
   10.4789   -4.3641   20.9564 C   0  0  0  0  0  0  0  0  0  0  0  0
    8.7421   -5.1412   16.3650 C   0  0  0  0  0  0  0  0  0  0  0  0
   11.4353   -2.9204   17.8044 C   0  0  0  0  0  0  0  0  0  0  0  0
   11.1529   -4.3028   22.1277 C   0  0  0  0  0  0  0  0  0  0  0  0
   11.1290   -4.8502   19.8052 C   0  0  0  0  0  0  0  0  0  0  0  0
   12.4329   -4.2159   24.4224 C   0  0  0  0  0  0  0  0  0  0  0  0
    3.4740   -9.0387   16.5022 C   0  0  0  0  0  0  0  0  0  0  0  0
    6.8384   -7.9290   17.5282 N   0  0  0  0  0  0  0  0  0  0  0  0
    9.4126   -5.9853   18.4899 C   0  0  0  0  0  0  0  0  0  0  0  0
    4.2064  -10.3242   18.3302 C   0  0  0  0  0  0  0  0  0  0  0  0
    9.6599   -4.1551   16.4796 N   0  0  0  0  0  0  0  0  0  0  0  0
    7.0644   -6.4612   15.7375 N   0  0  0  0  0  0  0  0  0  0  0  0
    5.3549   -9.6322   18.3190 C   0  0  0  0  0  0  0  0  0  0  0  0
   10.3704   -4.9638   18.6510 C   0  0  0  0  0  0  0  0  0  0  0  0
    5.5935   -8.6419   17.4234 C   0  0  0  0  0  0  0  0  0  0  0  0
   13.0726   -4.6648   23.3394 O   0  0  0  0  0  0  0  0  0  0  0  0
    8.5955   -6.0705   17.3996 C   0  0  0  0  0  0  0  0  0  0  0  0
    4.6223   -8.3832   16.5030 C   0  0  0  0  0  0  0  0  0  0  0  0
   12.4690   -5.2624   19.9024 C   0  0  0  0  0  0  0  0  0  0  0  0
    3.2548   -9.9919   17.4189 C   0  0  0  0  0  0  0  0  0  0  0  0
   12.4767   -4.7393   22.1790 C   0  0  0  0  0  0  0  0  0  0  0  0
    7.8593   -5.3772   15.3569 N   0  0  0  0  0  0  0  0  0  0  0  0
    7.4412   -6.9038   16.9283 C   0  0  0  0  0  0  0  0  0  0  0  0
  1 21  4  0
  1 23  4  0
  2  5  1  0
  2 13  4  0
  2 16  4  0
  3  6  4  0
  3  7  4  0
  4 13  4  0
  4 19  4  0
  4 24  4  0
  6 23  4  0
  7 16  1  0
  7 21  4  0
  8 18  1  0
  9 20  4  0
  9 22  4  0
 10 17  1  0
 10 25  1  0
 11 16  4  0
 11 19  4  0
 12 15  4  0
 12 22  4  0
 14 24  4  0
 14 25  4  0
 15 17  4  0
 17 20  4  0
 18 23  1  0
 19 25  4  0
M  END
$$$$

 Created by Python create_sdf_string function

 25 28  0  0  0  0  0  0  0  0999 V2000
   13.1533   -5.2399   21.0682 C   0  0  0  0  0  0  0  0  0  0  0  0
   10.4729   -4.0295   17.6135 C   0  0  0  0  0  0  0  0  0  0  0  0
   10.4789   -4.3641   20.9564 C   0  0  0  0  0  0  0  0  0  0  0  0
    8.7421   -5.1412   16.3650 C   0  0  0  0  0  0  0  0  0  0  0  0
   11.4353   -2.9204   17.8044 C   0  0  0  0  0  0  0  0  0  0  0  0
   11.1529   -4.3028   22.1277 C   0  0  0  0  0  0  0  0  0  0  0  0
   11.1290   -4.8502   19.8052 C   0  0  0  0  0  0  0  0  0  0  0  0
   12.4329   -4.2159   24.4224 C   0  0  0  0  0  0  0  0  0  0  0  0
    3.4740   -9.0387   16.5022 C   0  0  0  0  0  0  0  0  0  0  0  0
    6.8384   -7.9290   17.5282 N   0  0  0  0  0  0  0  0  0  0  0  0
    9.4126   -5.9853   18.4899 C   0  0  0  0  0  0  0  0  0  0  0  0
    4.2064  -10.3242   18.3302 C   0  0  0  0  0  0  0  0  0  0  0  0
    9.6599   -4.1551   16.4796 N   0  0  0  0  0  0  0  0  0  0  0  0
    7.0644   -6.4612   15.7375 N   0  0  0  0  0  0  0  0  0  0  0  0
    5.3549   -9.6322   18.3190 C   0  0  0  0  0  0  0  0  0  0  0  0
   10.3704   -4.9638   18.6510 C   0  0  0  0  0  0  0  0  0  0  0  0
    5.5935   -8.6419   17.4234 C   0  0  0  0  0  0  0  0  0  0  0  0
   13.0726   -4.6648   23.3394 O   0  0  0  0  0  0  0  0  0  0  0  0
    8.5955   -6.0705   17.3996 C   0  0  0  0  0  0  0  0  0  0  0  0
    4.6223   -8.3832   16.5030 C   0  0  0  0  0  0  0  0  0  0  0  0
   12.4690   -5.2624   19.9024 C   0  0  0  0  0  0  0  0  0  0  0  0
    3.2548   -9.9919   17.4189 C   0  0  0  0  0  0  0  0  0  0  0  0
   12.4767   -4.7393   22.1790 C   0  0  0  0  0  0  0  0  0  0  0  0
    7.8593   -5.3772   15.3569 N   0  0  0  0  0  0  0  0  0  0  0  0
    7.4412   -6.9038   16.9283 C   0  0  0  0  0  0  0  0  0  0  0  0
  1 21  4  0
  1 23  4  0
  2  5  1  0
  2 13  4  0
  2 16  4  0
  3  6  4  0
  3  7  4  0
  4 13  4  0
  4 19  4  0
  4 24  4  0
  6 23  4  0
  7 16  1  0
  7 21  4  0
  8 18  1  0
  9 20  4  0
  9 22  4  0
 10 17  1  0
 10 25  1  0
 11 16  4  0
 11 19  4  0
 12 15  4  0
 12 22  4  0
 14 24  4  0
 14 25  4  0
 15 17  4  0
 17 20  4  0
 18 23  1  0
 19 25  4  0
M  END
$$$$

 Created by Python create_sdf_string function

 25 28  0  0  0  0  0  0  0  0999 V2000
   13.1533   -5.2399   21.0682 C   0  0  0  0  0  0  0  0  0  0  0  0
   10.4729   -4.0295   17.6135 C   0  0  0  0  0  0  0  0  0  0  0  0
   10.4789   -4.3641   20.9564 C   0  0  0  0  0  0  0  0  0  0  0  0
    8.7421   -5.1412   16.3650 C   0  0  0  0  0  0  0  0  0  0  0  0
   11.4353   -2.9204   17.8044 C   0  0  0  0  0  0  0  0  0  0  0  0
   11.1529   -4.3028   22.1277 C   0  0  0  0  0  0  0  0  0  0  0  0
   11.1290   -4.8502   19.8052 C   0  0  0  0  0  0  0  0  0  0  0  0
   12.4329   -4.2159   24.4224 C   0  0  0  0  0  0  0  0  0  0  0  0
    3.4740   -9.0387   16.5022 C   0  0  0  0  0  0  0  0  0  0  0  0
    6.8384   -7.9290   17.5282 N   0  0  0  0  0  0  0  0  0  0  0  0
    9.4126   -5.9853   18.4899 C   0  0  0  0  0  0  0  0  0  0  0  0
    4.2064  -10.3242   18.3302 C   0  0  0  0  0  0  0  0  0  0  0  0
    9.6599   -4.1551   16.4796 N   0  0  0  0  0  0  0  0  0  0  0  0
    7.0644   -6.4612   15.7375 N   0  0  0  0  0  0  0  0  0  0  0  0
    5.3549   -9.6322   18.3190 C   0  0  0  0  0  0  0  0  0  0  0  0
   10.3704   -4.9638   18.6510 C   0  0  0  0  0  0  0  0  0  0  0  0
    5.5935   -8.6419   17.4234 C   0  0  0  0  0  0  0  0  0  0  0  0
   13.0726   -4.6648   23.3394 O   0  0  0  0  0  0  0  0  0  0  0  0
    8.5955   -6.0705   17.3996 C   0  0  0  0  0  0  0  0  0  0  0  0
    4.6223   -8.3832   16.5030 C   0  0  0  0  0  0  0  0  0  0  0  0
   12.4690   -5.2624   19.9024 C   0  0  0  0  0  0  0  0  0  0  0  0
    3.2548   -9.9919   17.4189 C   0  0  0  0  0  0  0  0  0  0  0  0
   12.4767   -4.7393   22.1790 C   0  0  0  0  0  0  0  0  0  0  0  0
    7.8593   -5.3772   15.3569 N   0  0  0  0  0  0  0  0  0  0  0  0
    7.4412   -6.9038   16.9283 C   0  0  0  0  0  0  0  0  0  0  0  0
  1 21  4  0
  1 23  4  0
  2  5  1  0
  2 13  4  0
  2 16  4  0
  3  6  4  0
  3  7  4  0
  4 13  4  0
  4 19  4  0
  4 24  4  0
  6 23  4  0
  7 16  1  0
  7 21  4  0
  8 18  1  0
  9 20  4  0
  9 22  4  0
 10 17  1  0
 10 25  1  0
 11 16  4  0
 11 19  4  0
 12 15  4  0
 12 22  4  0
 14 24  4  0
 14 25  4  0
 15 17  4  0
 17 20  4  0
 18 23  1  0
 19 25  4  0
M  END
$$$$

 Created by Python create_sdf_string function

 25 28  0  0  0  0  0  0  0  0999 V2000
   13.1533   -5.2399   21.0682 C   0  0  0  0  0  0  0  0  0  0  0  0
   10.4729   -4.0295   17.6135 C   0  0  0  0  0  0  0  0  0  0  0  0
   10.4789   -4.3641   20.9564 C   0  0  0  0  0  0  0  0  0  0  0  0
    8.7421   -5.1412   16.3650 C   0  0  0  0  0  0  0  0  0  0  0  0
   11.4353   -2.9204   17.8044 C   0  0  0  0  0  0  0  0  0  0  0  0
   11.1529   -4.3028   22.1277 C   0  0  0  0  0  0  0  0  0  0  0  0
   11.1290   -4.8502   19.8052 C   0  0  0  0  0  0  0  0  0  0  0  0
   12.4329   -4.2159   24.4224 C   0  0  0  0  0  0  0  0  0  0  0  0
    3.4740   -9.0387   16.5022 C   0  0  0  0  0  0  0  0  0  0  0  0
    6.8384   -7.9290   17.5282 N   0  0  0  0  0  0  0  0  0  0  0  0
    9.4126   -5.9853   18.4899 C   0  0  0  0  0  0  0  0  0  0  0  0
    4.2064  -10.3242   18.3302 C   0  0  0  0  0  0  0  0  0  0  0  0
    9.6599   -4.1551   16.4796 N   0  0  0  0  0  0  0  0  0  0  0  0
    7.0644   -6.4612   15.7375 N   0  0  0  0  0  0  0  0  0  0  0  0
    5.3549   -9.6322   18.3190 C   0  0  0  0  0  0  0  0  0  0  0  0
   10.3704   -4.9638   18.6510 C   0  0  0  0  0  0  0  0  0  0  0  0
    5.5935   -8.6419   17.4234 C   0  0  0  0  0  0  0  0  0  0  0  0
   13.0726   -4.6648   23.3394 O   0  0  0  0  0  0  0  0  0  0  0  0
    8.5955   -6.0705   17.3996 C   0  0  0  0  0  0  0  0  0  0  0  0
    4.6223   -8.3832   16.5030 C   0  0  0  0  0  0  0  0  0  0  0  0
   12.4690   -5.2624   19.9024 C   0  0  0  0  0  0  0  0  0  0  0  0
    3.2548   -9.9919   17.4189 C   0  0  0  0  0  0  0  0  0  0  0  0
   12.4767   -4.7393   22.1790 C   0  0  0  0  0  0  0  0  0  0  0  0
    7.8593   -5.3772   15.3569 N   0  0  0  0  0  0  0  0  0  0  0  0
    7.4412   -6.9038   16.9283 C   0  0  0  0  0  0  0  0  0  0  0  0
  1 21  4  0
  1 23  4  0
  2  5  1  0
  2 13  4  0
  2 16  4  0
  3  6  4  0
  3  7  4  0
  4 13  4  0
  4 19  4  0
  4 24  4  0
  6 23  4  0
  7 16  1  0
  7 21  4  0
  8 18  1  0
  9 20  4  0
  9 22  4  0
 10 17  1  0
 10 25  1  0
 11 16  4  0
 11 19  4  0
 12 15  4  0
 12 22  4  0
 14 24  4  0
 14 25  4  0
 15 17  4  0
 17 20  4  0
 18 23  1  0
 19 25  4  0
M  END
$$$$

 Created by Python create_sdf_string function

 25 28  0  0  0  0  0  0  0  0999 V2000
   13.1533   -5.2399   21.0682 C   0  0  0  0  0  0  0  0  0  0  0  0
   10.4729   -4.0295   17.6135 C   0  0  0  0  0  0  0  0  0  0  0  0
   10.4789   -4.3641   20.9564 C   0  0  0  0  0  0  0  0  0  0  0  0
    8.7421   -5.1412   16.3650 C   0  0  0  0  0  0  0  0  0  0  0  0
   11.4353   -2.9204   17.8044 C   0  0  0  0  0  0  0  0  0  0  0  0
   11.1529   -4.3028   22.1277 C   0  0  0  0  0  0  0  0  0  0  0  0
   11.1290   -4.8502   19.8052 C   0  0  0  0  0  0  0  0  0  0  0  0
   12.4329   -4.2159   24.4224 C   0  0  0  0  0  0  0  0  0  0  0  0
    3.4740   -9.0387   16.5022 C   0  0  0  0  0  0  0  0  0  0  0  0
    6.8384   -7.9290   17.5282 N   0  0  0  0  0  0  0  0  0  0  0  0
    9.4126   -5.9853   18.4899 C   0  0  0  0  0  0  0  0  0  0  0  0
    4.2064  -10.3242   18.3302 C   0  0  0  0  0  0  0  0  0  0  0  0
    9.6599   -4.1551   16.4796 N   0  0  0  0  0  0  0  0  0  0  0  0
    7.0644   -6.4612   15.7375 N   0  0  0  0  0  0  0  0  0  0  0  0
    5.3549   -9.6322   18.3190 C   0  0  0  0  0  0  0  0  0  0  0  0
   10.3704   -4.9638   18.6510 C   0  0  0  0  0  0  0  0  0  0  0  0
    5.5935   -8.6419   17.4234 C   0  0  0  0  0  0  0  0  0  0  0  0
   13.0726   -4.6648   23.3394 O   0  0  0  0  0  0  0  0  0  0  0  0
    8.5955   -6.0705   17.3996 C   0  0  0  0  0  0  0  0  0  0  0  0
    4.6223   -8.3832   16.5030 C   0  0  0  0  0  0  0  0  0  0  0  0
   12.4690   -5.2624   19.9024 C   0  0  0  0  0  0  0  0  0  0  0  0
    3.2548   -9.9919   17.4189 C   0  0  0  0  0  0  0  0  0  0  0  0
   12.4767   -4.7393   22.1790 C   0  0  0  0  0  0  0  0  0  0  0  0
    7.8593   -5.3772   15.3569 N   0  0  0  0  0  0  0  0  0  0  0  0
    7.4412   -6.9038   16.9283 C   0  0  0  0  0  0  0  0  0  0  0  0
  1 21  4  0
  1 23  4  0
  2  5  1  0
  2 13  4  0
  2 16  4  0
  3  6  4  0
  3  7  4  0
  4 13  4  0
  4 19  4  0
  4 24  4  0
  6 23  4  0
  7 16  1  0
  7 21  4  0
  8 18  1  0
  9 20  4  0
  9 22  4  0
 10 17  1  0
 10 25  1  0
 11 16  4  0
 11 19  4  0
 12 15  4  0
 12 22  4  0
 14 24  4  0
 14 25  4  0
 15 17  4  0
 17 20  4  0
 18 23  1  0
 19 25  4  0
M  END
$$$$

 Created by Python create_sdf_string function

 25 28  0  0  0  0  0  0  0  0999 V2000
   13.1533   -5.2399   21.0682 C   0  0  0  0  0  0  0  0  0  0  0  0
   10.4729   -4.0295   17.6135 C   0  0  0  0  0  0  0  0  0  0  0  0
   10.4789   -4.3641   20.9564 C   0  0  0  0  0  0  0  0  0  0  0  0
    8.7421   -5.1412   16.3650 C   0  0  0  0  0  0  0  0  0  0  0  0
   11.4353   -2.9204   17.8044 C   0  0  0  0  0  0  0  0  0  0  0  0
   11.1529   -4.3028   22.1277 C   0  0  0  0  0  0  0  0  0  0  0  0
   11.1290   -4.8502   19.8052 C   0  0  0  0  0  0  0  0  0  0  0  0
   12.4329   -4.2159   24.4224 C   0  0  0  0  0  0  0  0  0  0  0  0
    3.4740   -9.0387   16.5022 C   0  0  0  0  0  0  0  0  0  0  0  0
    6.8384   -7.9290   17.5282 N   0  0  0  0  0  0  0  0  0  0  0  0
    9.4126   -5.9853   18.4899 C   0  0  0  0  0  0  0  0  0  0  0  0
    4.2064  -10.3242   18.3302 C   0  0  0  0  0  0  0  0  0  0  0  0
    9.6599   -4.1551   16.4796 N   0  0  0  0  0  0  0  0  0  0  0  0
    7.0644   -6.4612   15.7375 N   0  0  0  0  0  0  0  0  0  0  0  0
    5.3549   -9.6322   18.3190 C   0  0  0  0  0  0  0  0  0  0  0  0
   10.3704   -4.9638   18.6510 C   0  0  0  0  0  0  0  0  0  0  0  0
    5.5935   -8.6419   17.4234 C   0  0  0  0  0  0  0  0  0  0  0  0
   13.0726   -4.6648   23.3394 O   0  0  0  0  0  0  0  0  0  0  0  0
    8.5955   -6.0705   17.3996 C   0  0  0  0  0  0  0  0  0  0  0  0
    4.6223   -8.3832   16.5030 C   0  0  0  0  0  0  0  0  0  0  0  0
   12.4690   -5.2624   19.9024 C   0  0  0  0  0  0  0  0  0  0  0  0
    3.2548   -9.9919   17.4189 C   0  0  0  0  0  0  0  0  0  0  0  0
   12.4767   -4.7393   22.1790 C   0  0  0  0  0  0  0  0  0  0  0  0
    7.8593   -5.3772   15.3569 N   0  0  0  0  0  0  0  0  0  0  0  0
    7.4412   -6.9038   16.9283 C   0  0  0  0  0  0  0  0  0  0  0  0
  1 21  4  0
  1 23  4  0
  2  5  1  0
  2 13  4  0
  2 16  4  0
  3  6  4  0
  3  7  4  0
  4 13  4  0
  4 19  4  0
  4 24  4  0
  6 23  4  0
  7 16  1  0
  7 21  4  0
  8 18  1  0
  9 20  4  0
  9 22  4  0
 10 17  1  0
 10 25  1  0
 11 16  4  0
 11 19  4  0
 12 15  4  0
 12 22  4  0
 14 24  4  0
 14 25  4  0
 15 17  4  0
 17 20  4  0
 18 23  1  0
 19 25  4  0
M  END
$$$$

 Created by Python create_sdf_string function

 25 28  0  0  0  0  0  0  0  0999 V2000
   13.1533   -5.2399   21.0682 C   0  0  0  0  0  0  0  0  0  0  0  0
   10.4729   -4.0295   17.6135 C   0  0  0  0  0  0  0  0  0  0  0  0
   10.4789   -4.3641   20.9564 C   0  0  0  0  0  0  0  0  0  0  0  0
    8.7421   -5.1412   16.3650 C   0  0  0  0  0  0  0  0  0  0  0  0
   11.4353   -2.9204   17.8044 C   0  0  0  0  0  0  0  0  0  0  0  0
   11.1529   -4.3028   22.1277 C   0  0  0  0  0  0  0  0  0  0  0  0
   11.1290   -4.8502   19.8052 C   0  0  0  0  0  0  0  0  0  0  0  0
   12.4329   -4.2159   24.4224 C   0  0  0  0  0  0  0  0  0  0  0  0
    3.4740   -9.0387   16.5022 C   0  0  0  0  0  0  0  0  0  0  0  0
    6.8384   -7.9290   17.5282 N   0  0  0  0  0  0  0  0  0  0  0  0
    9.4126   -5.9853   18.4899 C   0  0  0  0  0  0  0  0  0  0  0  0
    4.2064  -10.3242   18.3302 C   0  0  0  0  0  0  0  0  0  0  0  0
    9.6599   -4.1551   16.4796 N   0  0  0  0  0  0  0  0  0  0  0  0
    7.0644   -6.4612   15.7375 N   0  0  0  0  0  0  0  0  0  0  0  0
    5.3549   -9.6322   18.3190 C   0  0  0  0  0  0  0  0  0  0  0  0
   10.3704   -4.9638   18.6510 C   0  0  0  0  0  0  0  0  0  0  0  0
    5.5935   -8.6419   17.4234 C   0  0  0  0  0  0  0  0  0  0  0  0
   13.0726   -4.6648   23.3394 O   0  0  0  0  0  0  0  0  0  0  0  0
    8.5955   -6.0705   17.3996 C   0  0  0  0  0  0  0  0  0  0  0  0
    4.6223   -8.3832   16.5030 C   0  0  0  0  0  0  0  0  0  0  0  0
   12.4690   -5.2624   19.9024 C   0  0  0  0  0  0  0  0  0  0  0  0
    3.2548   -9.9919   17.4189 C   0  0  0  0  0  0  0  0  0  0  0  0
   12.4767   -4.7393   22.1790 C   0  0  0  0  0  0  0  0  0  0  0  0
    7.8593   -5.3772   15.3569 N   0  0  0  0  0  0  0  0  0  0  0  0
    7.4412   -6.9038   16.9283 C   0  0  0  0  0  0  0  0  0  0  0  0
  1 21  4  0
  1 23  4  0
  2  5  1  0
  2 13  4  0
  2 16  4  0
  3  6  4  0
  3  7  4  0
  4 13  4  0
  4 19  4  0
  4 24  4  0
  6 23  4  0
  7 16  1  0
  7 21  4  0
  8 18  1  0
  9 20  4  0
  9 22  4  0
 10 17  1  0
 10 25  1  0
 11 16  4  0
 11 19  4  0
 12 15  4  0
 12 22  4  0
 14 24  4  0
 14 25  4  0
 15 17  4  0
 17 20  4  0
 18 23  1  0
 19 25  4  0
M  END
$$$$

 Created by Python create_sdf_string function

 25 28  0  0  0  0  0  0  0  0999 V2000
   13.1533   -5.2399   21.0682 C   0  0  0  0  0  0  0  0  0  0  0  0
   10.4729   -4.0295   17.6135 C   0  0  0  0  0  0  0  0  0  0  0  0
   10.4789   -4.3641   20.9564 C   0  0  0  0  0  0  0  0  0  0  0  0
    8.7421   -5.1412   16.3650 C   0  0  0  0  0  0  0  0  0  0  0  0
   11.4353   -2.9204   17.8044 C   0  0  0  0  0  0  0  0  0  0  0  0
   11.1529   -4.3028   22.1277 C   0  0  0  0  0  0  0  0  0  0  0  0
   11.1290   -4.8502   19.8052 C   0  0  0  0  0  0  0  0  0  0  0  0
   12.4329   -4.2159   24.4224 C   0  0  0  0  0  0  0  0  0  0  0  0
    3.4740   -9.0387   16.5022 C   0  0  0  0  0  0  0  0  0  0  0  0
    6.8384   -7.9290   17.5282 N   0  0  0  0  0  0  0  0  0  0  0  0
    9.4126   -5.9853   18.4899 C   0  0  0  0  0  0  0  0  0  0  0  0
    4.2064  -10.3242   18.3302 C   0  0  0  0  0  0  0  0  0  0  0  0
    9.6599   -4.1551   16.4796 N   0  0  0  0  0  0  0  0  0  0  0  0
    7.0644   -6.4612   15.7375 N   0  0  0  0  0  0  0  0  0  0  0  0
    5.3549   -9.6322   18.3190 C   0  0  0  0  0  0  0  0  0  0  0  0
   10.3704   -4.9638   18.6510 C   0  0  0  0  0  0  0  0  0  0  0  0
    5.5935   -8.6419   17.4234 C   0  0  0  0  0  0  0  0  0  0  0  0
   13.0726   -4.6648   23.3394 O   0  0  0  0  0  0  0  0  0  0  0  0
    8.5955   -6.0705   17.3996 C   0  0  0  0  0  0  0  0  0  0  0  0
    4.6223   -8.3832   16.5030 C   0  0  0  0  0  0  0  0  0  0  0  0
   12.4690   -5.2624   19.9024 C   0  0  0  0  0  0  0  0  0  0  0  0
    3.2548   -9.9919   17.4189 C   0  0  0  0  0  0  0  0  0  0  0  0
   12.4767   -4.7393   22.1790 C   0  0  0  0  0  0  0  0  0  0  0  0
    7.8593   -5.3772   15.3569 N   0  0  0  0  0  0  0  0  0  0  0  0
    7.4412   -6.9038   16.9283 C   0  0  0  0  0  0  0  0  0  0  0  0
  1 21  4  0
  1 23  4  0
  2  5  1  0
  2 13  4  0
  2 16  4  0
  3  6  4  0
  3  7  4  0
  4 13  4  0
  4 19  4  0
  4 24  4  0
  6 23  4  0
  7 16  1  0
  7 21  4  0
  8 18  1  0
  9 20  4  0
  9 22  4  0
 10 17  1  0
 10 25  1  0
 11 16  4  0
 11 19  4  0
 12 15  4  0
 12 22  4  0
 14 24  4  0
 14 25  4  0
 15 17  4  0
 17 20  4  0
 18 23  1  0
 19 25  4  0
M  END
$$$$

 Created by Python create_sdf_string function

 25 28  0  0  0  0  0  0  0  0999 V2000
   13.1533   -5.2399   21.0682 C   0  0  0  0  0  0  0  0  0  0  0  0
   10.4729   -4.0295   17.6135 C   0  0  0  0  0  0  0  0  0  0  0  0
   10.4789   -4.3641   20.9564 C   0  0  0  0  0  0  0  0  0  0  0  0
    8.7421   -5.1412   16.3650 C   0  0  0  0  0  0  0  0  0  0  0  0
   11.4353   -2.9204   17.8044 C   0  0  0  0  0  0  0  0  0  0  0  0
   11.1529   -4.3028   22.1277 C   0  0  0  0  0  0  0  0  0  0  0  0
   11.1290   -4.8502   19.8052 C   0  0  0  0  0  0  0  0  0  0  0  0
   12.4329   -4.2159   24.4224 C   0  0  0  0  0  0  0  0  0  0  0  0
    3.4740   -9.0387   16.5022 C   0  0  0  0  0  0  0  0  0  0  0  0
    6.8384   -7.9290   17.5282 N   0  0  0  0  0  0  0  0  0  0  0  0
    9.4126   -5.9853   18.4899 C   0  0  0  0  0  0  0  0  0  0  0  0
    4.2064  -10.3242   18.3302 C   0  0  0  0  0  0  0  0  0  0  0  0
    9.6599   -4.1551   16.4796 N   0  0  0  0  0  0  0  0  0  0  0  0
    7.0644   -6.4612   15.7375 N   0  0  0  0  0  0  0  0  0  0  0  0
    5.3549   -9.6322   18.3190 C   0  0  0  0  0  0  0  0  0  0  0  0
   10.3704   -4.9638   18.6510 C   0  0  0  0  0  0  0  0  0  0  0  0
    5.5935   -8.6419   17.4234 C   0  0  0  0  0  0  0  0  0  0  0  0
   13.0726   -4.6648   23.3394 O   0  0  0  0  0  0  0  0  0  0  0  0
    8.5955   -6.0705   17.3996 C   0  0  0  0  0  0  0  0  0  0  0  0
    4.6223   -8.3832   16.5030 C   0  0  0  0  0  0  0  0  0  0  0  0
   12.4690   -5.2624   19.9024 C   0  0  0  0  0  0  0  0  0  0  0  0
    3.2548   -9.9919   17.4189 C   0  0  0  0  0  0  0  0  0  0  0  0
   12.4767   -4.7393   22.1790 C   0  0  0  0  0  0  0  0  0  0  0  0
    7.8593   -5.3772   15.3569 N   0  0  0  0  0  0  0  0  0  0  0  0
    7.4412   -6.9038   16.9283 C   0  0  0  0  0  0  0  0  0  0  0  0
  1 21  4  0
  1 23  4  0
  2  5  1  0
  2 13  4  0
  2 16  4  0
  3  6  4  0
  3  7  4  0
  4 13  4  0
  4 19  4  0
  4 24  4  0
  6 23  4  0
  7 16  1  0
  7 21  4  0
  8 18  1  0
  9 20  4  0
  9 22  4  0
 10 17  1  0
 10 25  1  0
 11 16  4  0
 11 19  4  0
 12 15  4  0
 12 22  4  0
 14 24  4  0
 14 25  4  0
 15 17  4  0
 17 20  4  0
 18 23  1  0
 19 25  4  0
M  END
$$$$

 Created by Python create_sdf_string function

 25 28  0  0  0  0  0  0  0  0999 V2000
   13.1533   -5.2399   21.0682 C   0  0  0  0  0  0  0  0  0  0  0  0
   10.4729   -4.0295   17.6135 C   0  0  0  0  0  0  0  0  0  0  0  0
   10.4789   -4.3641   20.9564 C   0  0  0  0  0  0  0  0  0  0  0  0
    8.7421   -5.1412   16.3650 C   0  0  0  0  0  0  0  0  0  0  0  0
   11.4353   -2.9204   17.8044 C   0  0  0  0  0  0  0  0  0  0  0  0
   11.1529   -4.3028   22.1277 C   0  0  0  0  0  0  0  0  0  0  0  0
   11.1290   -4.8502   19.8052 C   0  0  0  0  0  0  0  0  0  0  0  0
   12.4329   -4.2159   24.4224 C   0  0  0  0  0  0  0  0  0  0  0  0
    3.4740   -9.0387   16.5022 C   0  0  0  0  0  0  0  0  0  0  0  0
    6.8384   -7.9290   17.5282 N   0  0  0  0  0  0  0  0  0  0  0  0
    9.4126   -5.9853   18.4899 C   0  0  0  0  0  0  0  0  0  0  0  0
    4.2064  -10.3242   18.3302 C   0  0  0  0  0  0  0  0  0  0  0  0
    9.6599   -4.1551   16.4796 N   0  0  0  0  0  0  0  0  0  0  0  0
    7.0644   -6.4612   15.7375 N   0  0  0  0  0  0  0  0  0  0  0  0
    5.3549   -9.6322   18.3190 C   0  0  0  0  0  0  0  0  0  0  0  0
   10.3704   -4.9638   18.6510 C   0  0  0  0  0  0  0  0  0  0  0  0
    5.5935   -8.6419   17.4234 C   0  0  0  0  0  0  0  0  0  0  0  0
   13.0726   -4.6648   23.3394 O   0  0  0  0  0  0  0  0  0  0  0  0
    8.5955   -6.0705   17.3996 C   0  0  0  0  0  0  0  0  0  0  0  0
    4.6223   -8.3832   16.5030 C   0  0  0  0  0  0  0  0  0  0  0  0
   12.4690   -5.2624   19.9024 C   0  0  0  0  0  0  0  0  0  0  0  0
    3.2548   -9.9919   17.4189 C   0  0  0  0  0  0  0  0  0  0  0  0
   12.4767   -4.7393   22.1790 C   0  0  0  0  0  0  0  0  0  0  0  0
    7.8593   -5.3772   15.3569 N   0  0  0  0  0  0  0  0  0  0  0  0
    7.4412   -6.9038   16.9283 C   0  0  0  0  0  0  0  0  0  0  0  0
  1 21  4  0
  1 23  4  0
  2  5  1  0
  2 13  4  0
  2 16  4  0
  3  6  4  0
  3  7  4  0
  4 13  4  0
  4 19  4  0
  4 24  4  0
  6 23  4  0
  7 16  1  0
  7 21  4  0
  8 18  1  0
  9 20  4  0
  9 22  4  0
 10 17  1  0
 10 25  1  0
 11 16  4  0
 11 19  4  0
 12 15  4  0
 12 22  4  0
 14 24  4  0
 14 25  4  0
 15 17  4  0
 17 20  4  0
 18 23  1  0
 19 25  4  0
M  END
$$$$

 Created by Python create_sdf_string function

 25 28  0  0  0  0  0  0  0  0999 V2000
   13.1533   -5.2399   21.0682 C   0  0  0  0  0  0  0  0  0  0  0  0
   10.4729   -4.0295   17.6135 C   0  0  0  0  0  0  0  0  0  0  0  0
   10.4789   -4.3641   20.9564 C   0  0  0  0  0  0  0  0  0  0  0  0
    8.7421   -5.1412   16.3650 C   0  0  0  0  0  0  0  0  0  0  0  0
   11.4353   -2.9204   17.8044 C   0  0  0  0  0  0  0  0  0  0  0  0
   11.1529   -4.3028   22.1277 C   0  0  0  0  0  0  0  0  0  0  0  0
   11.1290   -4.8502   19.8052 C   0  0  0  0  0  0  0  0  0  0  0  0
   12.4329   -4.2159   24.4224 C   0  0  0  0  0  0  0  0  0  0  0  0
    3.4740   -9.0387   16.5022 C   0  0  0  0  0  0  0  0  0  0  0  0
    6.8384   -7.9290   17.5282 N   0  0  0  0  0  0  0  0  0  0  0  0
    9.4126   -5.9853   18.4899 C   0  0  0  0  0  0  0  0  0  0  0  0
    4.2064  -10.3242   18.3302 C   0  0  0  0  0  0  0  0  0  0  0  0
    9.6599   -4.1551   16.4796 N   0  0  0  0  0  0  0  0  0  0  0  0
    7.0644   -6.4612   15.7375 N   0  0  0  0  0  0  0  0  0  0  0  0
    5.3549   -9.6322   18.3190 C   0  0  0  0  0  0  0  0  0  0  0  0
   10.3704   -4.9638   18.6510 C   0  0  0  0  0  0  0  0  0  0  0  0
    5.5935   -8.6419   17.4234 C   0  0  0  0  0  0  0  0  0  0  0  0
   13.0726   -4.6648   23.3394 O   0  0  0  0  0  0  0  0  0  0  0  0
    8.5955   -6.0705   17.3996 C   0  0  0  0  0  0  0  0  0  0  0  0
    4.6223   -8.3832   16.5030 C   0  0  0  0  0  0  0  0  0  0  0  0
   12.4690   -5.2624   19.9024 C   0  0  0  0  0  0  0  0  0  0  0  0
    3.2548   -9.9919   17.4189 C   0  0  0  0  0  0  0  0  0  0  0  0
   12.4767   -4.7393   22.1790 C   0  0  0  0  0  0  0  0  0  0  0  0
    7.8593   -5.3772   15.3569 N   0  0  0  0  0  0  0  0  0  0  0  0
    7.4412   -6.9038   16.9283 C   0  0  0  0  0  0  0  0  0  0  0  0
  1 21  4  0
  1 23  4  0
  2  5  1  0
  2 13  4  0
  2 16  4  0
  3  6  4  0
  3  7  4  0
  4 13  4  0
  4 19  4  0
  4 24  4  0
  6 23  4  0
  7 16  1  0
  7 21  4  0
  8 18  1  0
  9 20  4  0
  9 22  4  0
 10 17  1  0
 10 25  1  0
 11 16  4  0
 11 19  4  0
 12 15  4  0
 12 22  4  0
 14 24  4  0
 14 25  4  0
 15 17  4  0
 17 20  4  0
 18 23  1  0
 19 25  4  0
M  END
$$$$

 Created by Python create_sdf_string function

 25 28  0  0  0  0  0  0  0  0999 V2000
   13.1533   -5.2399   21.0682 C   0  0  0  0  0  0  0  0  0  0  0  0
   10.4729   -4.0295   17.6135 C   0  0  0  0  0  0  0  0  0  0  0  0
   10.4789   -4.3641   20.9564 C   0  0  0  0  0  0  0  0  0  0  0  0
    8.7421   -5.1412   16.3650 C   0  0  0  0  0  0  0  0  0  0  0  0
   11.4353   -2.9204   17.8044 C   0  0  0  0  0  0  0  0  0  0  0  0
   11.1529   -4.3028   22.1277 C   0  0  0  0  0  0  0  0  0  0  0  0
   11.1290   -4.8502   19.8052 C   0  0  0  0  0  0  0  0  0  0  0  0
   12.4329   -4.2159   24.4224 C   0  0  0  0  0  0  0  0  0  0  0  0
    3.4740   -9.0387   16.5022 C   0  0  0  0  0  0  0  0  0  0  0  0
    6.8384   -7.9290   17.5282 N   0  0  0  0  0  0  0  0  0  0  0  0
    9.4126   -5.9853   18.4899 C   0  0  0  0  0  0  0  0  0  0  0  0
    4.2064  -10.3242   18.3302 C   0  0  0  0  0  0  0  0  0  0  0  0
    9.6599   -4.1551   16.4796 N   0  0  0  0  0  0  0  0  0  0  0  0
    7.0644   -6.4612   15.7375 N   0  0  0  0  0  0  0  0  0  0  0  0
    5.3549   -9.6322   18.3190 C   0  0  0  0  0  0  0  0  0  0  0  0
   10.3704   -4.9638   18.6510 C   0  0  0  0  0  0  0  0  0  0  0  0
    5.5935   -8.6419   17.4234 C   0  0  0  0  0  0  0  0  0  0  0  0
   13.0726   -4.6648   23.3394 O   0  0  0  0  0  0  0  0  0  0  0  0
    8.5955   -6.0705   17.3996 C   0  0  0  0  0  0  0  0  0  0  0  0
    4.6223   -8.3832   16.5030 C   0  0  0  0  0  0  0  0  0  0  0  0
   12.4690   -5.2624   19.9024 C   0  0  0  0  0  0  0  0  0  0  0  0
    3.2548   -9.9919   17.4189 C   0  0  0  0  0  0  0  0  0  0  0  0
   12.4767   -4.7393   22.1790 C   0  0  0  0  0  0  0  0  0  0  0  0
    7.8593   -5.3772   15.3569 N   0  0  0  0  0  0  0  0  0  0  0  0
    7.4412   -6.9038   16.9283 C   0  0  0  0  0  0  0  0  0  0  0  0
  1 21  4  0
  1 23  4  0
  2  5  1  0
  2 13  4  0
  2 16  4  0
  3  6  4  0
  3  7  4  0
  4 13  4  0
  4 19  4  0
  4 24  4  0
  6 23  4  0
  7 16  1  0
  7 21  4  0
  8 18  1  0
  9 20  4  0
  9 22  4  0
 10 17  1  0
 10 25  1  0
 11 16  4  0
 11 19  4  0
 12 15  4  0
 12 22  4  0
 14 24  4  0
 14 25  4  0
 15 17  4  0
 17 20  4  0
 18 23  1  0
 19 25  4  0
M  END
$$$$

 Created by Python create_sdf_string function

 25 28  0  0  0  0  0  0  0  0999 V2000
   13.1533   -5.2399   21.0682 C   0  0  0  0  0  0  0  0  0  0  0  0
   10.4729   -4.0295   17.6135 C   0  0  0  0  0  0  0  0  0  0  0  0
   10.4789   -4.3641   20.9564 C   0  0  0  0  0  0  0  0  0  0  0  0
    8.7421   -5.1412   16.3650 C   0  0  0  0  0  0  0  0  0  0  0  0
   11.4353   -2.9204   17.8044 C   0  0  0  0  0  0  0  0  0  0  0  0
   11.1529   -4.3028   22.1277 C   0  0  0  0  0  0  0  0  0  0  0  0
   11.1290   -4.8502   19.8052 C   0  0  0  0  0  0  0  0  0  0  0  0
   12.4329   -4.2159   24.4224 C   0  0  0  0  0  0  0  0  0  0  0  0
    3.4740   -9.0387   16.5022 C   0  0  0  0  0  0  0  0  0  0  0  0
    6.8384   -7.9290   17.5282 N   0  0  0  0  0  0  0  0  0  0  0  0
    9.4126   -5.9853   18.4899 C   0  0  0  0  0  0  0  0  0  0  0  0
    4.2064  -10.3242   18.3302 C   0  0  0  0  0  0  0  0  0  0  0  0
    9.6599   -4.1551   16.4796 N   0  0  0  0  0  0  0  0  0  0  0  0
    7.0644   -6.4612   15.7375 N   0  0  0  0  0  0  0  0  0  0  0  0
    5.3549   -9.6322   18.3190 C   0  0  0  0  0  0  0  0  0  0  0  0
   10.3704   -4.9638   18.6510 C   0  0  0  0  0  0  0  0  0  0  0  0
    5.5935   -8.6419   17.4234 C   0  0  0  0  0  0  0  0  0  0  0  0
   13.0726   -4.6648   23.3394 O   0  0  0  0  0  0  0  0  0  0  0  0
    8.5955   -6.0705   17.3996 C   0  0  0  0  0  0  0  0  0  0  0  0
    4.6223   -8.3832   16.5030 C   0  0  0  0  0  0  0  0  0  0  0  0
   12.4690   -5.2624   19.9024 C   0  0  0  0  0  0  0  0  0  0  0  0
    3.2548   -9.9919   17.4189 C   0  0  0  0  0  0  0  0  0  0  0  0
   12.4767   -4.7393   22.1790 C   0  0  0  0  0  0  0  0  0  0  0  0
    7.8593   -5.3772   15.3569 N   0  0  0  0  0  0  0  0  0  0  0  0
    7.4412   -6.9038   16.9283 C   0  0  0  0  0  0  0  0  0  0  0  0
  1 21  4  0
  1 23  4  0
  2  5  1  0
  2 13  4  0
  2 16  4  0
  3  6  4  0
  3  7  4  0
  4 13  4  0
  4 19  4  0
  4 24  4  0
  6 23  4  0
  7 16  1  0
  7 21  4  0
  8 18  1  0
  9 20  4  0
  9 22  4  0
 10 17  1  0
 10 25  1  0
 11 16  4  0
 11 19  4  0
 12 15  4  0
 12 22  4  0
 14 24  4  0
 14 25  4  0
 15 17  4  0
 17 20  4  0
 18 23  1  0
 19 25  4  0
M  END
$$$$

 Created by Python create_sdf_string function

 25 28  0  0  0  0  0  0  0  0999 V2000
   13.1533   -5.2399   21.0682 C   0  0  0  0  0  0  0  0  0  0  0  0
   10.4729   -4.0295   17.6135 C   0  0  0  0  0  0  0  0  0  0  0  0
   10.4789   -4.3641   20.9564 C   0  0  0  0  0  0  0  0  0  0  0  0
    8.7421   -5.1412   16.3650 C   0  0  0  0  0  0  0  0  0  0  0  0
   11.4353   -2.9204   17.8044 C   0  0  0  0  0  0  0  0  0  0  0  0
   11.1529   -4.3028   22.1277 C   0  0  0  0  0  0  0  0  0  0  0  0
   11.1290   -4.8502   19.8052 C   0  0  0  0  0  0  0  0  0  0  0  0
   12.4329   -4.2159   24.4224 C   0  0  0  0  0  0  0  0  0  0  0  0
    3.4740   -9.0387   16.5022 C   0  0  0  0  0  0  0  0  0  0  0  0
    6.8384   -7.9290   17.5282 N   0  0  0  0  0  0  0  0  0  0  0  0
    9.4126   -5.9853   18.4899 C   0  0  0  0  0  0  0  0  0  0  0  0
    4.2064  -10.3242   18.3302 C   0  0  0  0  0  0  0  0  0  0  0  0
    9.6599   -4.1551   16.4796 N   0  0  0  0  0  0  0  0  0  0  0  0
    7.0644   -6.4612   15.7375 N   0  0  0  0  0  0  0  0  0  0  0  0
    5.3549   -9.6322   18.3190 C   0  0  0  0  0  0  0  0  0  0  0  0
   10.3704   -4.9638   18.6510 C   0  0  0  0  0  0  0  0  0  0  0  0
    5.5935   -8.6419   17.4234 C   0  0  0  0  0  0  0  0  0  0  0  0
   13.0726   -4.6648   23.3394 O   0  0  0  0  0  0  0  0  0  0  0  0
    8.5955   -6.0705   17.3996 C   0  0  0  0  0  0  0  0  0  0  0  0
    4.6223   -8.3832   16.5030 C   0  0  0  0  0  0  0  0  0  0  0  0
   12.4690   -5.2624   19.9024 C   0  0  0  0  0  0  0  0  0  0  0  0
    3.2548   -9.9919   17.4189 C   0  0  0  0  0  0  0  0  0  0  0  0
   12.4767   -4.7393   22.1790 C   0  0  0  0  0  0  0  0  0  0  0  0
    7.8593   -5.3772   15.3569 N   0  0  0  0  0  0  0  0  0  0  0  0
    7.4412   -6.9038   16.9283 C   0  0  0  0  0  0  0  0  0  0  0  0
  1 21  4  0
  1 23  4  0
  2  5  1  0
  2 13  4  0
  2 16  4  0
  3  6  4  0
  3  7  4  0
  4 13  4  0
  4 19  4  0
  4 24  4  0
  6 23  4  0
  7 16  1  0
  7 21  4  0
  8 18  1  0
  9 20  4  0
  9 22  4  0
 10 17  1  0
 10 25  1  0
 11 16  4  0
 11 19  4  0
 12 15  4  0
 12 22  4  0
 14 24  4  0
 14 25  4  0
 15 17  4  0
 17 20  4  0
 18 23  1  0
 19 25  4  0
M  END
$$$$

 Created by Python create_sdf_string function

 25 28  0  0  0  0  0  0  0  0999 V2000
   13.1533   -5.2399   21.0682 C   0  0  0  0  0  0  0  0  0  0  0  0
   10.4729   -4.0295   17.6135 C   0  0  0  0  0  0  0  0  0  0  0  0
   10.4789   -4.3641   20.9564 C   0  0  0  0  0  0  0  0  0  0  0  0
    8.7421   -5.1412   16.3650 C   0  0  0  0  0  0  0  0  0  0  0  0
   11.4353   -2.9204   17.8044 C   0  0  0  0  0  0  0  0  0  0  0  0
   11.1529   -4.3028   22.1277 C   0  0  0  0  0  0  0  0  0  0  0  0
   11.1290   -4.8502   19.8052 C   0  0  0  0  0  0  0  0  0  0  0  0
   12.4329   -4.2159   24.4224 C   0  0  0  0  0  0  0  0  0  0  0  0
    3.4740   -9.0387   16.5022 C   0  0  0  0  0  0  0  0  0  0  0  0
    6.8384   -7.9290   17.5282 N   0  0  0  0  0  0  0  0  0  0  0  0
    9.4126   -5.9853   18.4899 C   0  0  0  0  0  0  0  0  0  0  0  0
    4.2064  -10.3242   18.3302 C   0  0  0  0  0  0  0  0  0  0  0  0
    9.6599   -4.1551   16.4796 N   0  0  0  0  0  0  0  0  0  0  0  0
    7.0644   -6.4612   15.7375 N   0  0  0  0  0  0  0  0  0  0  0  0
    5.3549   -9.6322   18.3190 C   0  0  0  0  0  0  0  0  0  0  0  0
   10.3704   -4.9638   18.6510 C   0  0  0  0  0  0  0  0  0  0  0  0
    5.5935   -8.6419   17.4234 C   0  0  0  0  0  0  0  0  0  0  0  0
   13.0726   -4.6648   23.3394 O   0  0  0  0  0  0  0  0  0  0  0  0
    8.5955   -6.0705   17.3996 C   0  0  0  0  0  0  0  0  0  0  0  0
    4.6223   -8.3832   16.5030 C   0  0  0  0  0  0  0  0  0  0  0  0
   12.4690   -5.2624   19.9024 C   0  0  0  0  0  0  0  0  0  0  0  0
    3.2548   -9.9919   17.4189 C   0  0  0  0  0  0  0  0  0  0  0  0
   12.4767   -4.7393   22.1790 C   0  0  0  0  0  0  0  0  0  0  0  0
    7.8593   -5.3772   15.3569 N   0  0  0  0  0  0  0  0  0  0  0  0
    7.4412   -6.9038   16.9283 C   0  0  0  0  0  0  0  0  0  0  0  0
  1 21  4  0
  1 23  4  0
  2  5  1  0
  2 13  4  0
  2 16  4  0
  3  6  4  0
  3  7  4  0
  4 13  4  0
  4 19  4  0
  4 24  4  0
  6 23  4  0
  7 16  1  0
  7 21  4  0
  8 18  1  0
  9 20  4  0
  9 22  4  0
 10 17  1  0
 10 25  1  0
 11 16  4  0
 11 19  4  0
 12 15  4  0
 12 22  4  0
 14 24  4  0
 14 25  4  0
 15 17  4  0
 17 20  4  0
 18 23  1  0
 19 25  4  0
M  END
$$$$

 Created by Python create_sdf_string function

 25 28  0  0  0  0  0  0  0  0999 V2000
   13.1533   -5.2399   21.0682 C   0  0  0  0  0  0  0  0  0  0  0  0
   10.4729   -4.0295   17.6135 C   0  0  0  0  0  0  0  0  0  0  0  0
   10.4789   -4.3641   20.9564 C   0  0  0  0  0  0  0  0  0  0  0  0
    8.7421   -5.1412   16.3650 C   0  0  0  0  0  0  0  0  0  0  0  0
   11.4353   -2.9204   17.8044 C   0  0  0  0  0  0  0  0  0  0  0  0
   11.1529   -4.3028   22.1277 C   0  0  0  0  0  0  0  0  0  0  0  0
   11.1290   -4.8502   19.8052 C   0  0  0  0  0  0  0  0  0  0  0  0
   12.4329   -4.2159   24.4224 C   0  0  0  0  0  0  0  0  0  0  0  0
    3.4740   -9.0387   16.5022 C   0  0  0  0  0  0  0  0  0  0  0  0
    6.8384   -7.9290   17.5282 N   0  0  0  0  0  0  0  0  0  0  0  0
    9.4126   -5.9853   18.4899 C   0  0  0  0  0  0  0  0  0  0  0  0
    4.2064  -10.3242   18.3302 C   0  0  0  0  0  0  0  0  0  0  0  0
    9.6599   -4.1551   16.4796 N   0  0  0  0  0  0  0  0  0  0  0  0
    7.0644   -6.4612   15.7375 N   0  0  0  0  0  0  0  0  0  0  0  0
    5.3549   -9.6322   18.3190 C   0  0  0  0  0  0  0  0  0  0  0  0
   10.3704   -4.9638   18.6510 C   0  0  0  0  0  0  0  0  0  0  0  0
    5.5935   -8.6419   17.4234 C   0  0  0  0  0  0  0  0  0  0  0  0
   13.0726   -4.6648   23.3394 O   0  0  0  0  0  0  0  0  0  0  0  0
    8.5955   -6.0705   17.3996 C   0  0  0  0  0  0  0  0  0  0  0  0
    4.6223   -8.3832   16.5030 C   0  0  0  0  0  0  0  0  0  0  0  0
   12.4690   -5.2624   19.9024 C   0  0  0  0  0  0  0  0  0  0  0  0
    3.2548   -9.9919   17.4189 C   0  0  0  0  0  0  0  0  0  0  0  0
   12.4767   -4.7393   22.1790 C   0  0  0  0  0  0  0  0  0  0  0  0
    7.8593   -5.3772   15.3569 N   0  0  0  0  0  0  0  0  0  0  0  0
    7.4412   -6.9038   16.9283 C   0  0  0  0  0  0  0  0  0  0  0  0
  1 21  4  0
  1 23  4  0
  2  5  1  0
  2 13  4  0
  2 16  4  0
  3  6  4  0
  3  7  4  0
  4 13  4  0
  4 19  4  0
  4 24  4  0
  6 23  4  0
  7 16  1  0
  7 21  4  0
  8 18  1  0
  9 20  4  0
  9 22  4  0
 10 17  1  0
 10 25  1  0
 11 16  4  0
 11 19  4  0
 12 15  4  0
 12 22  4  0
 14 24  4  0
 14 25  4  0
 15 17  4  0
 17 20  4  0
 18 23  1  0
 19 25  4  0
M  END
$$$$

 Created by Python create_sdf_string function

 25 28  0  0  0  0  0  0  0  0999 V2000
   13.1533   -5.2399   21.0682 C   0  0  0  0  0  0  0  0  0  0  0  0
   10.4729   -4.0295   17.6135 C   0  0  0  0  0  0  0  0  0  0  0  0
   10.4789   -4.3641   20.9564 C   0  0  0  0  0  0  0  0  0  0  0  0
    8.7421   -5.1412   16.3650 C   0  0  0  0  0  0  0  0  0  0  0  0
   11.4353   -2.9204   17.8044 C   0  0  0  0  0  0  0  0  0  0  0  0
   11.1529   -4.3028   22.1277 C   0  0  0  0  0  0  0  0  0  0  0  0
   11.1290   -4.8502   19.8052 C   0  0  0  0  0  0  0  0  0  0  0  0
   12.4329   -4.2159   24.4224 C   0  0  0  0  0  0  0  0  0  0  0  0
    3.4740   -9.0387   16.5022 C   0  0  0  0  0  0  0  0  0  0  0  0
    6.8384   -7.9290   17.5282 N   0  0  0  0  0  0  0  0  0  0  0  0
    9.4126   -5.9853   18.4899 C   0  0  0  0  0  0  0  0  0  0  0  0
    4.2064  -10.3242   18.3302 C   0  0  0  0  0  0  0  0  0  0  0  0
    9.6599   -4.1551   16.4796 N   0  0  0  0  0  0  0  0  0  0  0  0
    7.0644   -6.4612   15.7375 N   0  0  0  0  0  0  0  0  0  0  0  0
    5.3549   -9.6322   18.3190 C   0  0  0  0  0  0  0  0  0  0  0  0
   10.3704   -4.9638   18.6510 C   0  0  0  0  0  0  0  0  0  0  0  0
    5.5935   -8.6419   17.4234 C   0  0  0  0  0  0  0  0  0  0  0  0
   13.0726   -4.6648   23.3394 O   0  0  0  0  0  0  0  0  0  0  0  0
    8.5955   -6.0705   17.3996 C   0  0  0  0  0  0  0  0  0  0  0  0
    4.6223   -8.3832   16.5030 C   0  0  0  0  0  0  0  0  0  0  0  0
   12.4690   -5.2624   19.9024 C   0  0  0  0  0  0  0  0  0  0  0  0
    3.2548   -9.9919   17.4189 C   0  0  0  0  0  0  0  0  0  0  0  0
   12.4767   -4.7393   22.1790 C   0  0  0  0  0  0  0  0  0  0  0  0
    7.8593   -5.3772   15.3569 N   0  0  0  0  0  0  0  0  0  0  0  0
    7.4412   -6.9038   16.9283 C   0  0  0  0  0  0  0  0  0  0  0  0
  1 21  4  0
  1 23  4  0
  2  5  1  0
  2 13  4  0
  2 16  4  0
  3  6  4  0
  3  7  4  0
  4 13  4  0
  4 19  4  0
  4 24  4  0
  6 23  4  0
  7 16  1  0
  7 21  4  0
  8 18  1  0
  9 20  4  0
  9 22  4  0
 10 17  1  0
 10 25  1  0
 11 16  4  0
 11 19  4  0
 12 15  4  0
 12 22  4  0
 14 24  4  0
 14 25  4  0
 15 17  4  0
 17 20  4  0
 18 23  1  0
 19 25  4  0
M  END
$$$$

 Created by Python create_sdf_string function

 25 28  0  0  0  0  0  0  0  0999 V2000
   13.1533   -5.2399   21.0682 C   0  0  0  0  0  0  0  0  0  0  0  0
   10.4729   -4.0295   17.6135 C   0  0  0  0  0  0  0  0  0  0  0  0
   10.4789   -4.3641   20.9564 C   0  0  0  0  0  0  0  0  0  0  0  0
    8.7421   -5.1412   16.3650 C   0  0  0  0  0  0  0  0  0  0  0  0
   11.4353   -2.9204   17.8044 C   0  0  0  0  0  0  0  0  0  0  0  0
   11.1529   -4.3028   22.1277 C   0  0  0  0  0  0  0  0  0  0  0  0
   11.1290   -4.8502   19.8052 C   0  0  0  0  0  0  0  0  0  0  0  0
   12.4329   -4.2159   24.4224 C   0  0  0  0  0  0  0  0  0  0  0  0
    3.4740   -9.0387   16.5022 C   0  0  0  0  0  0  0  0  0  0  0  0
    6.8384   -7.9290   17.5282 N   0  0  0  0  0  0  0  0  0  0  0  0
    9.4126   -5.9853   18.4899 C   0  0  0  0  0  0  0  0  0  0  0  0
    4.2064  -10.3242   18.3302 C   0  0  0  0  0  0  0  0  0  0  0  0
    9.6599   -4.1551   16.4796 N   0  0  0  0  0  0  0  0  0  0  0  0
    7.0644   -6.4612   15.7375 N   0  0  0  0  0  0  0  0  0  0  0  0
    5.3549   -9.6322   18.3190 C   0  0  0  0  0  0  0  0  0  0  0  0
   10.3704   -4.9638   18.6510 C   0  0  0  0  0  0  0  0  0  0  0  0
    5.5935   -8.6419   17.4234 C   0  0  0  0  0  0  0  0  0  0  0  0
   13.0726   -4.6648   23.3394 O   0  0  0  0  0  0  0  0  0  0  0  0
    8.5955   -6.0705   17.3996 C   0  0  0  0  0  0  0  0  0  0  0  0
    4.6223   -8.3832   16.5030 C   0  0  0  0  0  0  0  0  0  0  0  0
   12.4690   -5.2624   19.9024 C   0  0  0  0  0  0  0  0  0  0  0  0
    3.2548   -9.9919   17.4189 C   0  0  0  0  0  0  0  0  0  0  0  0
   12.4767   -4.7393   22.1790 C   0  0  0  0  0  0  0  0  0  0  0  0
    7.8593   -5.3772   15.3569 N   0  0  0  0  0  0  0  0  0  0  0  0
    7.4412   -6.9038   16.9283 C   0  0  0  0  0  0  0  0  0  0  0  0
  1 21  4  0
  1 23  4  0
  2  5  1  0
  2 13  4  0
  2 16  4  0
  3  6  4  0
  3  7  4  0
  4 13  4  0
  4 19  4  0
  4 24  4  0
  6 23  4  0
  7 16  1  0
  7 21  4  0
  8 18  1  0
  9 20  4  0
  9 22  4  0
 10 17  1  0
 10 25  1  0
 11 16  4  0
 11 19  4  0
 12 15  4  0
 12 22  4  0
 14 24  4  0
 14 25  4  0
 15 17  4  0
 17 20  4  0
 18 23  1  0
 19 25  4  0
M  END
$$$$

 Created by Python create_sdf_string function

 25 28  0  0  0  0  0  0  0  0999 V2000
   13.1533   -5.2399   21.0682 C   0  0  0  0  0  0  0  0  0  0  0  0
   10.4729   -4.0295   17.6135 C   0  0  0  0  0  0  0  0  0  0  0  0
   10.4789   -4.3641   20.9564 C   0  0  0  0  0  0  0  0  0  0  0  0
    8.7421   -5.1412   16.3650 C   0  0  0  0  0  0  0  0  0  0  0  0
   11.4353   -2.9204   17.8044 C   0  0  0  0  0  0  0  0  0  0  0  0
   11.1529   -4.3028   22.1277 C   0  0  0  0  0  0  0  0  0  0  0  0
   11.1290   -4.8502   19.8052 C   0  0  0  0  0  0  0  0  0  0  0  0
   12.4329   -4.2159   24.4224 C   0  0  0  0  0  0  0  0  0  0  0  0
    3.4740   -9.0387   16.5022 C   0  0  0  0  0  0  0  0  0  0  0  0
    6.8384   -7.9290   17.5282 N   0  0  0  0  0  0  0  0  0  0  0  0
    9.4126   -5.9853   18.4899 C   0  0  0  0  0  0  0  0  0  0  0  0
    4.2064  -10.3242   18.3302 C   0  0  0  0  0  0  0  0  0  0  0  0
    9.6599   -4.1551   16.4796 N   0  0  0  0  0  0  0  0  0  0  0  0
    7.0644   -6.4612   15.7375 N   0  0  0  0  0  0  0  0  0  0  0  0
    5.3549   -9.6322   18.3190 C   0  0  0  0  0  0  0  0  0  0  0  0
   10.3704   -4.9638   18.6510 C   0  0  0  0  0  0  0  0  0  0  0  0
    5.5935   -8.6419   17.4234 C   0  0  0  0  0  0  0  0  0  0  0  0
   13.0726   -4.6648   23.3394 O   0  0  0  0  0  0  0  0  0  0  0  0
    8.5955   -6.0705   17.3996 C   0  0  0  0  0  0  0  0  0  0  0  0
    4.6223   -8.3832   16.5030 C   0  0  0  0  0  0  0  0  0  0  0  0
   12.4690   -5.2624   19.9024 C   0  0  0  0  0  0  0  0  0  0  0  0
    3.2548   -9.9919   17.4189 C   0  0  0  0  0  0  0  0  0  0  0  0
   12.4767   -4.7393   22.1790 C   0  0  0  0  0  0  0  0  0  0  0  0
    7.8593   -5.3772   15.3569 N   0  0  0  0  0  0  0  0  0  0  0  0
    7.4412   -6.9038   16.9283 C   0  0  0  0  0  0  0  0  0  0  0  0
  1 21  4  0
  1 23  4  0
  2  5  1  0
  2 13  4  0
  2 16  4  0
  3  6  4  0
  3  7  4  0
  4 13  4  0
  4 19  4  0
  4 24  4  0
  6 23  4  0
  7 16  1  0
  7 21  4  0
  8 18  1  0
  9 20  4  0
  9 22  4  0
 10 17  1  0
 10 25  1  0
 11 16  4  0
 11 19  4  0
 12 15  4  0
 12 22  4  0
 14 24  4  0
 14 25  4  0
 15 17  4  0
 17 20  4  0
 18 23  1  0
 19 25  4  0
M  END
$$$$

 Created by Python create_sdf_string function

 25 28  0  0  0  0  0  0  0  0999 V2000
   13.1533   -5.2399   21.0682 C   0  0  0  0  0  0  0  0  0  0  0  0
   10.4729   -4.0295   17.6135 C   0  0  0  0  0  0  0  0  0  0  0  0
   10.4789   -4.3641   20.9564 C   0  0  0  0  0  0  0  0  0  0  0  0
    8.7421   -5.1412   16.3650 C   0  0  0  0  0  0  0  0  0  0  0  0
   11.4353   -2.9204   17.8044 C   0  0  0  0  0  0  0  0  0  0  0  0
   11.1529   -4.3028   22.1277 C   0  0  0  0  0  0  0  0  0  0  0  0
   11.1290   -4.8502   19.8052 C   0  0  0  0  0  0  0  0  0  0  0  0
   12.4329   -4.2159   24.4224 C   0  0  0  0  0  0  0  0  0  0  0  0
    3.4740   -9.0387   16.5022 C   0  0  0  0  0  0  0  0  0  0  0  0
    6.8384   -7.9290   17.5282 N   0  0  0  0  0  0  0  0  0  0  0  0
    9.4126   -5.9853   18.4899 C   0  0  0  0  0  0  0  0  0  0  0  0
    4.2064  -10.3242   18.3302 C   0  0  0  0  0  0  0  0  0  0  0  0
    9.6599   -4.1551   16.4796 N   0  0  0  0  0  0  0  0  0  0  0  0
    7.0644   -6.4612   15.7375 N   0  0  0  0  0  0  0  0  0  0  0  0
    5.3549   -9.6322   18.3190 C   0  0  0  0  0  0  0  0  0  0  0  0
   10.3704   -4.9638   18.6510 C   0  0  0  0  0  0  0  0  0  0  0  0
    5.5935   -8.6419   17.4234 C   0  0  0  0  0  0  0  0  0  0  0  0
   13.0726   -4.6648   23.3394 O   0  0  0  0  0  0  0  0  0  0  0  0
    8.5955   -6.0705   17.3996 C   0  0  0  0  0  0  0  0  0  0  0  0
    4.6223   -8.3832   16.5030 C   0  0  0  0  0  0  0  0  0  0  0  0
   12.4690   -5.2624   19.9024 C   0  0  0  0  0  0  0  0  0  0  0  0
    3.2548   -9.9919   17.4189 C   0  0  0  0  0  0  0  0  0  0  0  0
   12.4767   -4.7393   22.1790 C   0  0  0  0  0  0  0  0  0  0  0  0
    7.8593   -5.3772   15.3569 N   0  0  0  0  0  0  0  0  0  0  0  0
    7.4412   -6.9038   16.9283 C   0  0  0  0  0  0  0  0  0  0  0  0
  1 21  4  0
  1 23  4  0
  2  5  1  0
  2 13  4  0
  2 16  4  0
  3  6  4  0
  3  7  4  0
  4 13  4  0
  4 19  4  0
  4 24  4  0
  6 23  4  0
  7 16  1  0
  7 21  4  0
  8 18  1  0
  9 20  4  0
  9 22  4  0
 10 17  1  0
 10 25  1  0
 11 16  4  0
 11 19  4  0
 12 15  4  0
 12 22  4  0
 14 24  4  0
 14 25  4  0
 15 17  4  0
 17 20  4  0
 18 23  1  0
 19 25  4  0
M  END
$$$$

 Created by Python create_sdf_string function

 25 28  0  0  0  0  0  0  0  0999 V2000
   13.1533   -5.2399   21.0682 C   0  0  0  0  0  0  0  0  0  0  0  0
   10.4729   -4.0295   17.6135 C   0  0  0  0  0  0  0  0  0  0  0  0
   10.4789   -4.3641   20.9564 C   0  0  0  0  0  0  0  0  0  0  0  0
    8.7421   -5.1412   16.3650 C   0  0  0  0  0  0  0  0  0  0  0  0
   11.4353   -2.9204   17.8044 C   0  0  0  0  0  0  0  0  0  0  0  0
   11.1529   -4.3028   22.1277 C   0  0  0  0  0  0  0  0  0  0  0  0
   11.1290   -4.8502   19.8052 C   0  0  0  0  0  0  0  0  0  0  0  0
   12.4329   -4.2159   24.4224 C   0  0  0  0  0  0  0  0  0  0  0  0
    3.4740   -9.0387   16.5022 C   0  0  0  0  0  0  0  0  0  0  0  0
    6.8384   -7.9290   17.5282 N   0  0  0  0  0  0  0  0  0  0  0  0
    9.4126   -5.9853   18.4899 C   0  0  0  0  0  0  0  0  0  0  0  0
    4.2064  -10.3242   18.3302 C   0  0  0  0  0  0  0  0  0  0  0  0
    9.6599   -4.1551   16.4796 N   0  0  0  0  0  0  0  0  0  0  0  0
    7.0644   -6.4612   15.7375 N   0  0  0  0  0  0  0  0  0  0  0  0
    5.3549   -9.6322   18.3190 C   0  0  0  0  0  0  0  0  0  0  0  0
   10.3704   -4.9638   18.6510 C   0  0  0  0  0  0  0  0  0  0  0  0
    5.5935   -8.6419   17.4234 C   0  0  0  0  0  0  0  0  0  0  0  0
   13.0726   -4.6648   23.3394 O   0  0  0  0  0  0  0  0  0  0  0  0
    8.5955   -6.0705   17.3996 C   0  0  0  0  0  0  0  0  0  0  0  0
    4.6223   -8.3832   16.5030 C   0  0  0  0  0  0  0  0  0  0  0  0
   12.4690   -5.2624   19.9024 C   0  0  0  0  0  0  0  0  0  0  0  0
    3.2548   -9.9919   17.4189 C   0  0  0  0  0  0  0  0  0  0  0  0
   12.4767   -4.7393   22.1790 C   0  0  0  0  0  0  0  0  0  0  0  0
    7.8593   -5.3772   15.3569 N   0  0  0  0  0  0  0  0  0  0  0  0
    7.4412   -6.9038   16.9283 C   0  0  0  0  0  0  0  0  0  0  0  0
  1 21  4  0
  1 23  4  0
  2  5  1  0
  2 13  4  0
  2 16  4  0
  3  6  4  0
  3  7  4  0
  4 13  4  0
  4 19  4  0
  4 24  4  0
  6 23  4  0
  7 16  1  0
  7 21  4  0
  8 18  1  0
  9 20  4  0
  9 22  4  0
 10 17  1  0
 10 25  1  0
 11 16  4  0
 11 19  4  0
 12 15  4  0
 12 22  4  0
 14 24  4  0
 14 25  4  0
 15 17  4  0
 17 20  4  0
 18 23  1  0
 19 25  4  0
M  END
$$$$

 Created by Python create_sdf_string function

 25 28  0  0  0  0  0  0  0  0999 V2000
   13.1533   -5.2399   21.0682 C   0  0  0  0  0  0  0  0  0  0  0  0
   10.4729   -4.0295   17.6135 C   0  0  0  0  0  0  0  0  0  0  0  0
   10.4789   -4.3641   20.9564 C   0  0  0  0  0  0  0  0  0  0  0  0
    8.7421   -5.1412   16.3650 C   0  0  0  0  0  0  0  0  0  0  0  0
   11.4353   -2.9204   17.8044 C   0  0  0  0  0  0  0  0  0  0  0  0
   11.1529   -4.3028   22.1277 C   0  0  0  0  0  0  0  0  0  0  0  0
   11.1290   -4.8502   19.8052 C   0  0  0  0  0  0  0  0  0  0  0  0
   12.4329   -4.2159   24.4224 C   0  0  0  0  0  0  0  0  0  0  0  0
    3.4740   -9.0387   16.5022 C   0  0  0  0  0  0  0  0  0  0  0  0
    6.8384   -7.9290   17.5282 N   0  0  0  0  0  0  0  0  0  0  0  0
    9.4126   -5.9853   18.4899 C   0  0  0  0  0  0  0  0  0  0  0  0
    4.2064  -10.3242   18.3302 C   0  0  0  0  0  0  0  0  0  0  0  0
    9.6599   -4.1551   16.4796 N   0  0  0  0  0  0  0  0  0  0  0  0
    7.0644   -6.4612   15.7375 N   0  0  0  0  0  0  0  0  0  0  0  0
    5.3549   -9.6322   18.3190 C   0  0  0  0  0  0  0  0  0  0  0  0
   10.3704   -4.9638   18.6510 C   0  0  0  0  0  0  0  0  0  0  0  0
    5.5935   -8.6419   17.4234 C   0  0  0  0  0  0  0  0  0  0  0  0
   13.0726   -4.6648   23.3394 O   0  0  0  0  0  0  0  0  0  0  0  0
    8.5955   -6.0705   17.3996 C   0  0  0  0  0  0  0  0  0  0  0  0
    4.6223   -8.3832   16.5030 C   0  0  0  0  0  0  0  0  0  0  0  0
   12.4690   -5.2624   19.9024 C   0  0  0  0  0  0  0  0  0  0  0  0
    3.2548   -9.9919   17.4189 C   0  0  0  0  0  0  0  0  0  0  0  0
   12.4767   -4.7393   22.1790 C   0  0  0  0  0  0  0  0  0  0  0  0
    7.8593   -5.3772   15.3569 N   0  0  0  0  0  0  0  0  0  0  0  0
    7.4412   -6.9038   16.9283 C   0  0  0  0  0  0  0  0  0  0  0  0
  1 21  4  0
  1 23  4  0
  2  5  1  0
  2 13  4  0
  2 16  4  0
  3  6  4  0
  3  7  4  0
  4 13  4  0
  4 19  4  0
  4 24  4  0
  6 23  4  0
  7 16  1  0
  7 21  4  0
  8 18  1  0
  9 20  4  0
  9 22  4  0
 10 17  1  0
 10 25  1  0
 11 16  4  0
 11 19  4  0
 12 15  4  0
 12 22  4  0
 14 24  4  0
 14 25  4  0
 15 17  4  0
 17 20  4  0
 18 23  1  0
 19 25  4  0
M  END
$$$$

 Created by Python create_sdf_string function

 25 28  0  0  0  0  0  0  0  0999 V2000
   13.1533   -5.2399   21.0682 C   0  0  0  0  0  0  0  0  0  0  0  0
   10.4729   -4.0295   17.6135 C   0  0  0  0  0  0  0  0  0  0  0  0
   10.4789   -4.3641   20.9564 C   0  0  0  0  0  0  0  0  0  0  0  0
    8.7421   -5.1412   16.3650 C   0  0  0  0  0  0  0  0  0  0  0  0
   11.4353   -2.9204   17.8044 C   0  0  0  0  0  0  0  0  0  0  0  0
   11.1529   -4.3028   22.1277 C   0  0  0  0  0  0  0  0  0  0  0  0
   11.1290   -4.8502   19.8052 C   0  0  0  0  0  0  0  0  0  0  0  0
   12.4329   -4.2159   24.4224 C   0  0  0  0  0  0  0  0  0  0  0  0
    3.4740   -9.0387   16.5022 C   0  0  0  0  0  0  0  0  0  0  0  0
    6.8384   -7.9290   17.5282 N   0  0  0  0  0  0  0  0  0  0  0  0
    9.4126   -5.9853   18.4899 C   0  0  0  0  0  0  0  0  0  0  0  0
    4.2064  -10.3242   18.3302 C   0  0  0  0  0  0  0  0  0  0  0  0
    9.6599   -4.1551   16.4796 N   0  0  0  0  0  0  0  0  0  0  0  0
    7.0644   -6.4612   15.7375 N   0  0  0  0  0  0  0  0  0  0  0  0
    5.3549   -9.6322   18.3190 C   0  0  0  0  0  0  0  0  0  0  0  0
   10.3704   -4.9638   18.6510 C   0  0  0  0  0  0  0  0  0  0  0  0
    5.5935   -8.6419   17.4234 C   0  0  0  0  0  0  0  0  0  0  0  0
   13.0726   -4.6648   23.3394 O   0  0  0  0  0  0  0  0  0  0  0  0
    8.5955   -6.0705   17.3996 C   0  0  0  0  0  0  0  0  0  0  0  0
    4.6223   -8.3832   16.5030 C   0  0  0  0  0  0  0  0  0  0  0  0
   12.4690   -5.2624   19.9024 C   0  0  0  0  0  0  0  0  0  0  0  0
    3.2548   -9.9919   17.4189 C   0  0  0  0  0  0  0  0  0  0  0  0
   12.4767   -4.7393   22.1790 C   0  0  0  0  0  0  0  0  0  0  0  0
    7.8593   -5.3772   15.3569 N   0  0  0  0  0  0  0  0  0  0  0  0
    7.4412   -6.9038   16.9283 C   0  0  0  0  0  0  0  0  0  0  0  0
  1 21  4  0
  1 23  4  0
  2  5  1  0
  2 13  4  0
  2 16  4  0
  3  6  4  0
  3  7  4  0
  4 13  4  0
  4 19  4  0
  4 24  4  0
  6 23  4  0
  7 16  1  0
  7 21  4  0
  8 18  1  0
  9 20  4  0
  9 22  4  0
 10 17  1  0
 10 25  1  0
 11 16  4  0
 11 19  4  0
 12 15  4  0
 12 22  4  0
 14 24  4  0
 14 25  4  0
 15 17  4  0
 17 20  4  0
 18 23  1  0
 19 25  4  0
M  END
$$$$

 Created by Python create_sdf_string function

 25 28  0  0  0  0  0  0  0  0999 V2000
   13.1533   -5.2399   21.0682 C   0  0  0  0  0  0  0  0  0  0  0  0
   10.4729   -4.0295   17.6135 C   0  0  0  0  0  0  0  0  0  0  0  0
   10.4789   -4.3641   20.9564 C   0  0  0  0  0  0  0  0  0  0  0  0
    8.7421   -5.1412   16.3650 C   0  0  0  0  0  0  0  0  0  0  0  0
   11.4353   -2.9204   17.8044 C   0  0  0  0  0  0  0  0  0  0  0  0
   11.1529   -4.3028   22.1277 C   0  0  0  0  0  0  0  0  0  0  0  0
   11.1290   -4.8502   19.8052 C   0  0  0  0  0  0  0  0  0  0  0  0
   12.4329   -4.2159   24.4224 C   0  0  0  0  0  0  0  0  0  0  0  0
    3.4740   -9.0387   16.5022 C   0  0  0  0  0  0  0  0  0  0  0  0
    6.8384   -7.9290   17.5282 N   0  0  0  0  0  0  0  0  0  0  0  0
    9.4126   -5.9853   18.4899 C   0  0  0  0  0  0  0  0  0  0  0  0
    4.2064  -10.3242   18.3302 C   0  0  0  0  0  0  0  0  0  0  0  0
    9.6599   -4.1551   16.4796 N   0  0  0  0  0  0  0  0  0  0  0  0
    7.0644   -6.4612   15.7375 N   0  0  0  0  0  0  0  0  0  0  0  0
    5.3549   -9.6322   18.3190 C   0  0  0  0  0  0  0  0  0  0  0  0
   10.3704   -4.9638   18.6510 C   0  0  0  0  0  0  0  0  0  0  0  0
    5.5935   -8.6419   17.4234 C   0  0  0  0  0  0  0  0  0  0  0  0
   13.0726   -4.6648   23.3394 O   0  0  0  0  0  0  0  0  0  0  0  0
    8.5955   -6.0705   17.3996 C   0  0  0  0  0  0  0  0  0  0  0  0
    4.6223   -8.3832   16.5030 C   0  0  0  0  0  0  0  0  0  0  0  0
   12.4690   -5.2624   19.9024 C   0  0  0  0  0  0  0  0  0  0  0  0
    3.2548   -9.9919   17.4189 C   0  0  0  0  0  0  0  0  0  0  0  0
   12.4767   -4.7393   22.1790 C   0  0  0  0  0  0  0  0  0  0  0  0
    7.8593   -5.3772   15.3569 N   0  0  0  0  0  0  0  0  0  0  0  0
    7.4412   -6.9038   16.9283 C   0  0  0  0  0  0  0  0  0  0  0  0
  1 21  4  0
  1 23  4  0
  2  5  1  0
  2 13  4  0
  2 16  4  0
  3  6  4  0
  3  7  4  0
  4 13  4  0
  4 19  4  0
  4 24  4  0
  6 23  4  0
  7 16  1  0
  7 21  4  0
  8 18  1  0
  9 20  4  0
  9 22  4  0
 10 17  1  0
 10 25  1  0
 11 16  4  0
 11 19  4  0
 12 15  4  0
 12 22  4  0
 14 24  4  0
 14 25  4  0
 15 17  4  0
 17 20  4  0
 18 23  1  0
 19 25  4  0
M  END
$$$$

 Created by Python create_sdf_string function

 25 28  0  0  0  0  0  0  0  0999 V2000
   13.1533   -5.2399   21.0682 C   0  0  0  0  0  0  0  0  0  0  0  0
   10.4729   -4.0295   17.6135 C   0  0  0  0  0  0  0  0  0  0  0  0
   10.4789   -4.3641   20.9564 C   0  0  0  0  0  0  0  0  0  0  0  0
    8.7421   -5.1412   16.3650 C   0  0  0  0  0  0  0  0  0  0  0  0
   11.4353   -2.9204   17.8044 C   0  0  0  0  0  0  0  0  0  0  0  0
   11.1529   -4.3028   22.1277 C   0  0  0  0  0  0  0  0  0  0  0  0
   11.1290   -4.8502   19.8052 C   0  0  0  0  0  0  0  0  0  0  0  0
   12.4329   -4.2159   24.4224 C   0  0  0  0  0  0  0  0  0  0  0  0
    3.4740   -9.0387   16.5022 C   0  0  0  0  0  0  0  0  0  0  0  0
    6.8384   -7.9290   17.5282 N   0  0  0  0  0  0  0  0  0  0  0  0
    9.4126   -5.9853   18.4899 C   0  0  0  0  0  0  0  0  0  0  0  0
    4.2064  -10.3242   18.3302 C   0  0  0  0  0  0  0  0  0  0  0  0
    9.6599   -4.1551   16.4796 N   0  0  0  0  0  0  0  0  0  0  0  0
    7.0644   -6.4612   15.7375 N   0  0  0  0  0  0  0  0  0  0  0  0
    5.3549   -9.6322   18.3190 C   0  0  0  0  0  0  0  0  0  0  0  0
   10.3704   -4.9638   18.6510 C   0  0  0  0  0  0  0  0  0  0  0  0
    5.5935   -8.6419   17.4234 C   0  0  0  0  0  0  0  0  0  0  0  0
   13.0726   -4.6648   23.3394 O   0  0  0  0  0  0  0  0  0  0  0  0
    8.5955   -6.0705   17.3996 C   0  0  0  0  0  0  0  0  0  0  0  0
    4.6223   -8.3832   16.5030 C   0  0  0  0  0  0  0  0  0  0  0  0
   12.4690   -5.2624   19.9024 C   0  0  0  0  0  0  0  0  0  0  0  0
    3.2548   -9.9919   17.4189 C   0  0  0  0  0  0  0  0  0  0  0  0
   12.4767   -4.7393   22.1790 C   0  0  0  0  0  0  0  0  0  0  0  0
    7.8593   -5.3772   15.3569 N   0  0  0  0  0  0  0  0  0  0  0  0
    7.4412   -6.9038   16.9283 C   0  0  0  0  0  0  0  0  0  0  0  0
  1 21  4  0
  1 23  4  0
  2  5  1  0
  2 13  4  0
  2 16  4  0
  3  6  4  0
  3  7  4  0
  4 13  4  0
  4 19  4  0
  4 24  4  0
  6 23  4  0
  7 16  1  0
  7 21  4  0
  8 18  1  0
  9 20  4  0
  9 22  4  0
 10 17  1  0
 10 25  1  0
 11 16  4  0
 11 19  4  0
 12 15  4  0
 12 22  4  0
 14 24  4  0
 14 25  4  0
 15 17  4  0
 17 20  4  0
 18 23  1  0
 19 25  4  0
M  END
$$$$

 Created by Python create_sdf_string function

 25 28  0  0  0  0  0  0  0  0999 V2000
   13.1533   -5.2399   21.0682 C   0  0  0  0  0  0  0  0  0  0  0  0
   10.4729   -4.0295   17.6135 C   0  0  0  0  0  0  0  0  0  0  0  0
   10.4789   -4.3641   20.9564 C   0  0  0  0  0  0  0  0  0  0  0  0
    8.7421   -5.1412   16.3650 C   0  0  0  0  0  0  0  0  0  0  0  0
   11.4353   -2.9204   17.8044 C   0  0  0  0  0  0  0  0  0  0  0  0
   11.1529   -4.3028   22.1277 C   0  0  0  0  0  0  0  0  0  0  0  0
   11.1290   -4.8502   19.8052 C   0  0  0  0  0  0  0  0  0  0  0  0
   12.4329   -4.2159   24.4224 C   0  0  0  0  0  0  0  0  0  0  0  0
    3.4740   -9.0387   16.5022 C   0  0  0  0  0  0  0  0  0  0  0  0
    6.8384   -7.9290   17.5282 N   0  0  0  0  0  0  0  0  0  0  0  0
    9.4126   -5.9853   18.4899 C   0  0  0  0  0  0  0  0  0  0  0  0
    4.2064  -10.3242   18.3302 C   0  0  0  0  0  0  0  0  0  0  0  0
    9.6599   -4.1551   16.4796 N   0  0  0  0  0  0  0  0  0  0  0  0
    7.0644   -6.4612   15.7375 N   0  0  0  0  0  0  0  0  0  0  0  0
    5.3549   -9.6322   18.3190 C   0  0  0  0  0  0  0  0  0  0  0  0
   10.3704   -4.9638   18.6510 C   0  0  0  0  0  0  0  0  0  0  0  0
    5.5935   -8.6419   17.4234 C   0  0  0  0  0  0  0  0  0  0  0  0
   13.0726   -4.6648   23.3394 O   0  0  0  0  0  0  0  0  0  0  0  0
    8.5955   -6.0705   17.3996 C   0  0  0  0  0  0  0  0  0  0  0  0
    4.6223   -8.3832   16.5030 C   0  0  0  0  0  0  0  0  0  0  0  0
   12.4690   -5.2624   19.9024 C   0  0  0  0  0  0  0  0  0  0  0  0
    3.2548   -9.9919   17.4189 C   0  0  0  0  0  0  0  0  0  0  0  0
   12.4767   -4.7393   22.1790 C   0  0  0  0  0  0  0  0  0  0  0  0
    7.8593   -5.3772   15.3569 N   0  0  0  0  0  0  0  0  0  0  0  0
    7.4412   -6.9038   16.9283 C   0  0  0  0  0  0  0  0  0  0  0  0
  1 21  4  0
  1 23  4  0
  2  5  1  0
  2 13  4  0
  2 16  4  0
  3  6  4  0
  3  7  4  0
  4 13  4  0
  4 19  4  0
  4 24  4  0
  6 23  4  0
  7 16  1  0
  7 21  4  0
  8 18  1  0
  9 20  4  0
  9 22  4  0
 10 17  1  0
 10 25  1  0
 11 16  4  0
 11 19  4  0
 12 15  4  0
 12 22  4  0
 14 24  4  0
 14 25  4  0
 15 17  4  0
 17 20  4  0
 18 23  1  0
 19 25  4  0
M  END
$$$$

 Created by Python create_sdf_string function

 25 28  0  0  0  0  0  0  0  0999 V2000
   13.1533   -5.2399   21.0682 C   0  0  0  0  0  0  0  0  0  0  0  0
   10.4729   -4.0295   17.6135 C   0  0  0  0  0  0  0  0  0  0  0  0
   10.4789   -4.3641   20.9564 C   0  0  0  0  0  0  0  0  0  0  0  0
    8.7421   -5.1412   16.3650 C   0  0  0  0  0  0  0  0  0  0  0  0
   11.4353   -2.9204   17.8044 C   0  0  0  0  0  0  0  0  0  0  0  0
   11.1529   -4.3028   22.1277 C   0  0  0  0  0  0  0  0  0  0  0  0
   11.1290   -4.8502   19.8052 C   0  0  0  0  0  0  0  0  0  0  0  0
   12.4329   -4.2159   24.4224 C   0  0  0  0  0  0  0  0  0  0  0  0
    3.4740   -9.0387   16.5022 C   0  0  0  0  0  0  0  0  0  0  0  0
    6.8384   -7.9290   17.5282 N   0  0  0  0  0  0  0  0  0  0  0  0
    9.4126   -5.9853   18.4899 C   0  0  0  0  0  0  0  0  0  0  0  0
    4.2064  -10.3242   18.3302 C   0  0  0  0  0  0  0  0  0  0  0  0
    9.6599   -4.1551   16.4796 N   0  0  0  0  0  0  0  0  0  0  0  0
    7.0644   -6.4612   15.7375 N   0  0  0  0  0  0  0  0  0  0  0  0
    5.3549   -9.6322   18.3190 C   0  0  0  0  0  0  0  0  0  0  0  0
   10.3704   -4.9638   18.6510 C   0  0  0  0  0  0  0  0  0  0  0  0
    5.5935   -8.6419   17.4234 C   0  0  0  0  0  0  0  0  0  0  0  0
   13.0726   -4.6648   23.3394 O   0  0  0  0  0  0  0  0  0  0  0  0
    8.5955   -6.0705   17.3996 C   0  0  0  0  0  0  0  0  0  0  0  0
    4.6223   -8.3832   16.5030 C   0  0  0  0  0  0  0  0  0  0  0  0
   12.4690   -5.2624   19.9024 C   0  0  0  0  0  0  0  0  0  0  0  0
    3.2548   -9.9919   17.4189 C   0  0  0  0  0  0  0  0  0  0  0  0
   12.4767   -4.7393   22.1790 C   0  0  0  0  0  0  0  0  0  0  0  0
    7.8593   -5.3772   15.3569 N   0  0  0  0  0  0  0  0  0  0  0  0
    7.4412   -6.9038   16.9283 C   0  0  0  0  0  0  0  0  0  0  0  0
  1 21  4  0
  1 23  4  0
  2  5  1  0
  2 13  4  0
  2 16  4  0
  3  6  4  0
  3  7  4  0
  4 13  4  0
  4 19  4  0
  4 24  4  0
  6 23  4  0
  7 16  1  0
  7 21  4  0
  8 18  1  0
  9 20  4  0
  9 22  4  0
 10 17  1  0
 10 25  1  0
 11 16  4  0
 11 19  4  0
 12 15  4  0
 12 22  4  0
 14 24  4  0
 14 25  4  0
 15 17  4  0
 17 20  4  0
 18 23  1  0
 19 25  4  0
M  END
$$$$

 Created by Python create_sdf_string function

 25 28  0  0  0  0  0  0  0  0999 V2000
   13.1533   -5.2399   21.0682 C   0  0  0  0  0  0  0  0  0  0  0  0
   10.4729   -4.0295   17.6135 C   0  0  0  0  0  0  0  0  0  0  0  0
   10.4789   -4.3641   20.9564 C   0  0  0  0  0  0  0  0  0  0  0  0
    8.7421   -5.1412   16.3650 C   0  0  0  0  0  0  0  0  0  0  0  0
   11.4353   -2.9204   17.8044 C   0  0  0  0  0  0  0  0  0  0  0  0
   11.1529   -4.3028   22.1277 C   0  0  0  0  0  0  0  0  0  0  0  0
   11.1290   -4.8502   19.8052 C   0  0  0  0  0  0  0  0  0  0  0  0
   12.4329   -4.2159   24.4224 C   0  0  0  0  0  0  0  0  0  0  0  0
    3.4740   -9.0387   16.5022 C   0  0  0  0  0  0  0  0  0  0  0  0
    6.8384   -7.9290   17.5282 N   0  0  0  0  0  0  0  0  0  0  0  0
    9.4126   -5.9853   18.4899 C   0  0  0  0  0  0  0  0  0  0  0  0
    4.2064  -10.3242   18.3302 C   0  0  0  0  0  0  0  0  0  0  0  0
    9.6599   -4.1551   16.4796 N   0  0  0  0  0  0  0  0  0  0  0  0
    7.0644   -6.4612   15.7375 N   0  0  0  0  0  0  0  0  0  0  0  0
    5.3549   -9.6322   18.3190 C   0  0  0  0  0  0  0  0  0  0  0  0
   10.3704   -4.9638   18.6510 C   0  0  0  0  0  0  0  0  0  0  0  0
    5.5935   -8.6419   17.4234 C   0  0  0  0  0  0  0  0  0  0  0  0
   13.0726   -4.6648   23.3394 O   0  0  0  0  0  0  0  0  0  0  0  0
    8.5955   -6.0705   17.3996 C   0  0  0  0  0  0  0  0  0  0  0  0
    4.6223   -8.3832   16.5030 C   0  0  0  0  0  0  0  0  0  0  0  0
   12.4690   -5.2624   19.9024 C   0  0  0  0  0  0  0  0  0  0  0  0
    3.2548   -9.9919   17.4189 C   0  0  0  0  0  0  0  0  0  0  0  0
   12.4767   -4.7393   22.1790 C   0  0  0  0  0  0  0  0  0  0  0  0
    7.8593   -5.3772   15.3569 N   0  0  0  0  0  0  0  0  0  0  0  0
    7.4412   -6.9038   16.9283 C   0  0  0  0  0  0  0  0  0  0  0  0
  1 21  4  0
  1 23  4  0
  2  5  1  0
  2 13  4  0
  2 16  4  0
  3  6  4  0
  3  7  4  0
  4 13  4  0
  4 19  4  0
  4 24  4  0
  6 23  4  0
  7 16  1  0
  7 21  4  0
  8 18  1  0
  9 20  4  0
  9 22  4  0
 10 17  1  0
 10 25  1  0
 11 16  4  0
 11 19  4  0
 12 15  4  0
 12 22  4  0
 14 24  4  0
 14 25  4  0
 15 17  4  0
 17 20  4  0
 18 23  1  0
 19 25  4  0
M  END
$$$$

 Created by Python create_sdf_string function

 25 28  0  0  0  0  0  0  0  0999 V2000
   13.1533   -5.2399   21.0682 C   0  0  0  0  0  0  0  0  0  0  0  0
   10.4729   -4.0295   17.6135 C   0  0  0  0  0  0  0  0  0  0  0  0
   10.4789   -4.3641   20.9564 C   0  0  0  0  0  0  0  0  0  0  0  0
    8.7421   -5.1412   16.3650 C   0  0  0  0  0  0  0  0  0  0  0  0
   11.4353   -2.9204   17.8044 C   0  0  0  0  0  0  0  0  0  0  0  0
   11.1529   -4.3028   22.1277 C   0  0  0  0  0  0  0  0  0  0  0  0
   11.1290   -4.8502   19.8052 C   0  0  0  0  0  0  0  0  0  0  0  0
   12.4329   -4.2159   24.4224 C   0  0  0  0  0  0  0  0  0  0  0  0
    3.4740   -9.0387   16.5022 C   0  0  0  0  0  0  0  0  0  0  0  0
    6.8384   -7.9290   17.5282 N   0  0  0  0  0  0  0  0  0  0  0  0
    9.4126   -5.9853   18.4899 C   0  0  0  0  0  0  0  0  0  0  0  0
    4.2064  -10.3242   18.3302 C   0  0  0  0  0  0  0  0  0  0  0  0
    9.6599   -4.1551   16.4796 N   0  0  0  0  0  0  0  0  0  0  0  0
    7.0644   -6.4612   15.7375 N   0  0  0  0  0  0  0  0  0  0  0  0
    5.3549   -9.6322   18.3190 C   0  0  0  0  0  0  0  0  0  0  0  0
   10.3704   -4.9638   18.6510 C   0  0  0  0  0  0  0  0  0  0  0  0
    5.5935   -8.6419   17.4234 C   0  0  0  0  0  0  0  0  0  0  0  0
   13.0726   -4.6648   23.3394 O   0  0  0  0  0  0  0  0  0  0  0  0
    8.5955   -6.0705   17.3996 C   0  0  0  0  0  0  0  0  0  0  0  0
    4.6223   -8.3832   16.5030 C   0  0  0  0  0  0  0  0  0  0  0  0
   12.4690   -5.2624   19.9024 C   0  0  0  0  0  0  0  0  0  0  0  0
    3.2548   -9.9919   17.4189 C   0  0  0  0  0  0  0  0  0  0  0  0
   12.4767   -4.7393   22.1790 C   0  0  0  0  0  0  0  0  0  0  0  0
    7.8593   -5.3772   15.3569 N   0  0  0  0  0  0  0  0  0  0  0  0
    7.4412   -6.9038   16.9283 C   0  0  0  0  0  0  0  0  0  0  0  0
  1 21  4  0
  1 23  4  0
  2  5  1  0
  2 13  4  0
  2 16  4  0
  3  6  4  0
  3  7  4  0
  4 13  4  0
  4 19  4  0
  4 24  4  0
  6 23  4  0
  7 16  1  0
  7 21  4  0
  8 18  1  0
  9 20  4  0
  9 22  4  0
 10 17  1  0
 10 25  1  0
 11 16  4  0
 11 19  4  0
 12 15  4  0
 12 22  4  0
 14 24  4  0
 14 25  4  0
 15 17  4  0
 17 20  4  0
 18 23  1  0
 19 25  4  0
M  END
$$$$

 Created by Python create_sdf_string function

 25 28  0  0  0  0  0  0  0  0999 V2000
   13.1533   -5.2399   21.0682 C   0  0  0  0  0  0  0  0  0  0  0  0
   10.4729   -4.0295   17.6135 C   0  0  0  0  0  0  0  0  0  0  0  0
   10.4789   -4.3641   20.9564 C   0  0  0  0  0  0  0  0  0  0  0  0
    8.7421   -5.1412   16.3650 C   0  0  0  0  0  0  0  0  0  0  0  0
   11.4353   -2.9204   17.8044 C   0  0  0  0  0  0  0  0  0  0  0  0
   11.1529   -4.3028   22.1277 C   0  0  0  0  0  0  0  0  0  0  0  0
   11.1290   -4.8502   19.8052 C   0  0  0  0  0  0  0  0  0  0  0  0
   12.4329   -4.2159   24.4224 C   0  0  0  0  0  0  0  0  0  0  0  0
    3.4740   -9.0387   16.5022 C   0  0  0  0  0  0  0  0  0  0  0  0
    6.8384   -7.9290   17.5282 N   0  0  0  0  0  0  0  0  0  0  0  0
    9.4126   -5.9853   18.4899 C   0  0  0  0  0  0  0  0  0  0  0  0
    4.2064  -10.3242   18.3302 C   0  0  0  0  0  0  0  0  0  0  0  0
    9.6599   -4.1551   16.4796 N   0  0  0  0  0  0  0  0  0  0  0  0
    7.0644   -6.4612   15.7375 N   0  0  0  0  0  0  0  0  0  0  0  0
    5.3549   -9.6322   18.3190 C   0  0  0  0  0  0  0  0  0  0  0  0
   10.3704   -4.9638   18.6510 C   0  0  0  0  0  0  0  0  0  0  0  0
    5.5935   -8.6419   17.4234 C   0  0  0  0  0  0  0  0  0  0  0  0
   13.0726   -4.6648   23.3394 O   0  0  0  0  0  0  0  0  0  0  0  0
    8.5955   -6.0705   17.3996 C   0  0  0  0  0  0  0  0  0  0  0  0
    4.6223   -8.3832   16.5030 C   0  0  0  0  0  0  0  0  0  0  0  0
   12.4690   -5.2624   19.9024 C   0  0  0  0  0  0  0  0  0  0  0  0
    3.2548   -9.9919   17.4189 C   0  0  0  0  0  0  0  0  0  0  0  0
   12.4767   -4.7393   22.1790 C   0  0  0  0  0  0  0  0  0  0  0  0
    7.8593   -5.3772   15.3569 N   0  0  0  0  0  0  0  0  0  0  0  0
    7.4412   -6.9038   16.9283 C   0  0  0  0  0  0  0  0  0  0  0  0
  1 21  4  0
  1 23  4  0
  2  5  1  0
  2 13  4  0
  2 16  4  0
  3  6  4  0
  3  7  4  0
  4 13  4  0
  4 19  4  0
  4 24  4  0
  6 23  4  0
  7 16  1  0
  7 21  4  0
  8 18  1  0
  9 20  4  0
  9 22  4  0
 10 17  1  0
 10 25  1  0
 11 16  4  0
 11 19  4  0
 12 15  4  0
 12 22  4  0
 14 24  4  0
 14 25  4  0
 15 17  4  0
 17 20  4  0
 18 23  1  0
 19 25  4  0
M  END
$$$$

 Created by Python create_sdf_string function

 25 28  0  0  0  0  0  0  0  0999 V2000
   13.1533   -5.2399   21.0682 C   0  0  0  0  0  0  0  0  0  0  0  0
   10.4729   -4.0295   17.6135 C   0  0  0  0  0  0  0  0  0  0  0  0
   10.4789   -4.3641   20.9564 C   0  0  0  0  0  0  0  0  0  0  0  0
    8.7421   -5.1412   16.3650 C   0  0  0  0  0  0  0  0  0  0  0  0
   11.4353   -2.9204   17.8044 C   0  0  0  0  0  0  0  0  0  0  0  0
   11.1529   -4.3028   22.1277 C   0  0  0  0  0  0  0  0  0  0  0  0
   11.1290   -4.8502   19.8052 C   0  0  0  0  0  0  0  0  0  0  0  0
   12.4329   -4.2159   24.4224 C   0  0  0  0  0  0  0  0  0  0  0  0
    3.4740   -9.0387   16.5022 C   0  0  0  0  0  0  0  0  0  0  0  0
    6.8384   -7.9290   17.5282 N   0  0  0  0  0  0  0  0  0  0  0  0
    9.4126   -5.9853   18.4899 C   0  0  0  0  0  0  0  0  0  0  0  0
    4.2064  -10.3242   18.3302 C   0  0  0  0  0  0  0  0  0  0  0  0
    9.6599   -4.1551   16.4796 N   0  0  0  0  0  0  0  0  0  0  0  0
    7.0644   -6.4612   15.7375 N   0  0  0  0  0  0  0  0  0  0  0  0
    5.3549   -9.6322   18.3190 C   0  0  0  0  0  0  0  0  0  0  0  0
   10.3704   -4.9638   18.6510 C   0  0  0  0  0  0  0  0  0  0  0  0
    5.5935   -8.6419   17.4234 C   0  0  0  0  0  0  0  0  0  0  0  0
   13.0726   -4.6648   23.3394 O   0  0  0  0  0  0  0  0  0  0  0  0
    8.5955   -6.0705   17.3996 C   0  0  0  0  0  0  0  0  0  0  0  0
    4.6223   -8.3832   16.5030 C   0  0  0  0  0  0  0  0  0  0  0  0
   12.4690   -5.2624   19.9024 C   0  0  0  0  0  0  0  0  0  0  0  0
    3.2548   -9.9919   17.4189 C   0  0  0  0  0  0  0  0  0  0  0  0
   12.4767   -4.7393   22.1790 C   0  0  0  0  0  0  0  0  0  0  0  0
    7.8593   -5.3772   15.3569 N   0  0  0  0  0  0  0  0  0  0  0  0
    7.4412   -6.9038   16.9283 C   0  0  0  0  0  0  0  0  0  0  0  0
  1 21  4  0
  1 23  4  0
  2  5  1  0
  2 13  4  0
  2 16  4  0
  3  6  4  0
  3  7  4  0
  4 13  4  0
  4 19  4  0
  4 24  4  0
  6 23  4  0
  7 16  1  0
  7 21  4  0
  8 18  1  0
  9 20  4  0
  9 22  4  0
 10 17  1  0
 10 25  1  0
 11 16  4  0
 11 19  4  0
 12 15  4  0
 12 22  4  0
 14 24  4  0
 14 25  4  0
 15 17  4  0
 17 20  4  0
 18 23  1  0
 19 25  4  0
M  END
$$$$

 Created by Python create_sdf_string function

 25 28  0  0  0  0  0  0  0  0999 V2000
   13.1533   -5.2399   21.0682 C   0  0  0  0  0  0  0  0  0  0  0  0
   10.4729   -4.0295   17.6135 C   0  0  0  0  0  0  0  0  0  0  0  0
   10.4789   -4.3641   20.9564 C   0  0  0  0  0  0  0  0  0  0  0  0
    8.7421   -5.1412   16.3650 C   0  0  0  0  0  0  0  0  0  0  0  0
   11.4353   -2.9204   17.8044 C   0  0  0  0  0  0  0  0  0  0  0  0
   11.1529   -4.3028   22.1277 C   0  0  0  0  0  0  0  0  0  0  0  0
   11.1290   -4.8502   19.8052 C   0  0  0  0  0  0  0  0  0  0  0  0
   12.4329   -4.2159   24.4224 C   0  0  0  0  0  0  0  0  0  0  0  0
    3.4740   -9.0387   16.5022 C   0  0  0  0  0  0  0  0  0  0  0  0
    6.8384   -7.9290   17.5282 N   0  0  0  0  0  0  0  0  0  0  0  0
    9.4126   -5.9853   18.4899 C   0  0  0  0  0  0  0  0  0  0  0  0
    4.2064  -10.3242   18.3302 C   0  0  0  0  0  0  0  0  0  0  0  0
    9.6599   -4.1551   16.4796 N   0  0  0  0  0  0  0  0  0  0  0  0
    7.0644   -6.4612   15.7375 N   0  0  0  0  0  0  0  0  0  0  0  0
    5.3549   -9.6322   18.3190 C   0  0  0  0  0  0  0  0  0  0  0  0
   10.3704   -4.9638   18.6510 C   0  0  0  0  0  0  0  0  0  0  0  0
    5.5935   -8.6419   17.4234 C   0  0  0  0  0  0  0  0  0  0  0  0
   13.0726   -4.6648   23.3394 O   0  0  0  0  0  0  0  0  0  0  0  0
    8.5955   -6.0705   17.3996 C   0  0  0  0  0  0  0  0  0  0  0  0
    4.6223   -8.3832   16.5030 C   0  0  0  0  0  0  0  0  0  0  0  0
   12.4690   -5.2624   19.9024 C   0  0  0  0  0  0  0  0  0  0  0  0
    3.2548   -9.9919   17.4189 C   0  0  0  0  0  0  0  0  0  0  0  0
   12.4767   -4.7393   22.1790 C   0  0  0  0  0  0  0  0  0  0  0  0
    7.8593   -5.3772   15.3569 N   0  0  0  0  0  0  0  0  0  0  0  0
    7.4412   -6.9038   16.9283 C   0  0  0  0  0  0  0  0  0  0  0  0
  1 21  4  0
  1 23  4  0
  2  5  1  0
  2 13  4  0
  2 16  4  0
  3  6  4  0
  3  7  4  0
  4 13  4  0
  4 19  4  0
  4 24  4  0
  6 23  4  0
  7 16  1  0
  7 21  4  0
  8 18  1  0
  9 20  4  0
  9 22  4  0
 10 17  1  0
 10 25  1  0
 11 16  4  0
 11 19  4  0
 12 15  4  0
 12 22  4  0
 14 24  4  0
 14 25  4  0
 15 17  4  0
 17 20  4  0
 18 23  1  0
 19 25  4  0
M  END
$$$$

 Created by Python create_sdf_string function

 25 28  0  0  0  0  0  0  0  0999 V2000
   13.1533   -5.2399   21.0682 C   0  0  0  0  0  0  0  0  0  0  0  0
   10.4729   -4.0295   17.6135 C   0  0  0  0  0  0  0  0  0  0  0  0
   10.4789   -4.3641   20.9564 C   0  0  0  0  0  0  0  0  0  0  0  0
    8.7421   -5.1412   16.3650 C   0  0  0  0  0  0  0  0  0  0  0  0
   11.4353   -2.9204   17.8044 C   0  0  0  0  0  0  0  0  0  0  0  0
   11.1529   -4.3028   22.1277 C   0  0  0  0  0  0  0  0  0  0  0  0
   11.1290   -4.8502   19.8052 C   0  0  0  0  0  0  0  0  0  0  0  0
   12.4329   -4.2159   24.4224 C   0  0  0  0  0  0  0  0  0  0  0  0
    3.4740   -9.0387   16.5022 C   0  0  0  0  0  0  0  0  0  0  0  0
    6.8384   -7.9290   17.5282 N   0  0  0  0  0  0  0  0  0  0  0  0
    9.4126   -5.9853   18.4899 C   0  0  0  0  0  0  0  0  0  0  0  0
    4.2064  -10.3242   18.3302 C   0  0  0  0  0  0  0  0  0  0  0  0
    9.6599   -4.1551   16.4796 N   0  0  0  0  0  0  0  0  0  0  0  0
    7.0644   -6.4612   15.7375 N   0  0  0  0  0  0  0  0  0  0  0  0
    5.3549   -9.6322   18.3190 C   0  0  0  0  0  0  0  0  0  0  0  0
   10.3704   -4.9638   18.6510 C   0  0  0  0  0  0  0  0  0  0  0  0
    5.5935   -8.6419   17.4234 C   0  0  0  0  0  0  0  0  0  0  0  0
   13.0726   -4.6648   23.3394 O   0  0  0  0  0  0  0  0  0  0  0  0
    8.5955   -6.0705   17.3996 C   0  0  0  0  0  0  0  0  0  0  0  0
    4.6223   -8.3832   16.5030 C   0  0  0  0  0  0  0  0  0  0  0  0
   12.4690   -5.2624   19.9024 C   0  0  0  0  0  0  0  0  0  0  0  0
    3.2548   -9.9919   17.4189 C   0  0  0  0  0  0  0  0  0  0  0  0
   12.4767   -4.7393   22.1790 C   0  0  0  0  0  0  0  0  0  0  0  0
    7.8593   -5.3772   15.3569 N   0  0  0  0  0  0  0  0  0  0  0  0
    7.4412   -6.9038   16.9283 C   0  0  0  0  0  0  0  0  0  0  0  0
  1 21  4  0
  1 23  4  0
  2  5  1  0
  2 13  4  0
  2 16  4  0
  3  6  4  0
  3  7  4  0
  4 13  4  0
  4 19  4  0
  4 24  4  0
  6 23  4  0
  7 16  1  0
  7 21  4  0
  8 18  1  0
  9 20  4  0
  9 22  4  0
 10 17  1  0
 10 25  1  0
 11 16  4  0
 11 19  4  0
 12 15  4  0
 12 22  4  0
 14 24  4  0
 14 25  4  0
 15 17  4  0
 17 20  4  0
 18 23  1  0
 19 25  4  0
M  END
$$$$

 Created by Python create_sdf_string function

 25 28  0  0  0  0  0  0  0  0999 V2000
   13.1533   -5.2399   21.0682 C   0  0  0  0  0  0  0  0  0  0  0  0
   10.4729   -4.0295   17.6135 C   0  0  0  0  0  0  0  0  0  0  0  0
   10.4789   -4.3641   20.9564 C   0  0  0  0  0  0  0  0  0  0  0  0
    8.7421   -5.1412   16.3650 C   0  0  0  0  0  0  0  0  0  0  0  0
   11.4353   -2.9204   17.8044 C   0  0  0  0  0  0  0  0  0  0  0  0
   11.1529   -4.3028   22.1277 C   0  0  0  0  0  0  0  0  0  0  0  0
   11.1290   -4.8502   19.8052 C   0  0  0  0  0  0  0  0  0  0  0  0
   12.4329   -4.2159   24.4224 C   0  0  0  0  0  0  0  0  0  0  0  0
    3.4740   -9.0387   16.5022 C   0  0  0  0  0  0  0  0  0  0  0  0
    6.8384   -7.9290   17.5282 N   0  0  0  0  0  0  0  0  0  0  0  0
    9.4126   -5.9853   18.4899 C   0  0  0  0  0  0  0  0  0  0  0  0
    4.2064  -10.3242   18.3302 C   0  0  0  0  0  0  0  0  0  0  0  0
    9.6599   -4.1551   16.4796 N   0  0  0  0  0  0  0  0  0  0  0  0
    7.0644   -6.4612   15.7375 N   0  0  0  0  0  0  0  0  0  0  0  0
    5.3549   -9.6322   18.3190 C   0  0  0  0  0  0  0  0  0  0  0  0
   10.3704   -4.9638   18.6510 C   0  0  0  0  0  0  0  0  0  0  0  0
    5.5935   -8.6419   17.4234 C   0  0  0  0  0  0  0  0  0  0  0  0
   13.0726   -4.6648   23.3394 O   0  0  0  0  0  0  0  0  0  0  0  0
    8.5955   -6.0705   17.3996 C   0  0  0  0  0  0  0  0  0  0  0  0
    4.6223   -8.3832   16.5030 C   0  0  0  0  0  0  0  0  0  0  0  0
   12.4690   -5.2624   19.9024 C   0  0  0  0  0  0  0  0  0  0  0  0
    3.2548   -9.9919   17.4189 C   0  0  0  0  0  0  0  0  0  0  0  0
   12.4767   -4.7393   22.1790 C   0  0  0  0  0  0  0  0  0  0  0  0
    7.8593   -5.3772   15.3569 N   0  0  0  0  0  0  0  0  0  0  0  0
    7.4412   -6.9038   16.9283 C   0  0  0  0  0  0  0  0  0  0  0  0
  1 21  4  0
  1 23  4  0
  2  5  1  0
  2 13  4  0
  2 16  4  0
  3  6  4  0
  3  7  4  0
  4 13  4  0
  4 19  4  0
  4 24  4  0
  6 23  4  0
  7 16  1  0
  7 21  4  0
  8 18  1  0
  9 20  4  0
  9 22  4  0
 10 17  1  0
 10 25  1  0
 11 16  4  0
 11 19  4  0
 12 15  4  0
 12 22  4  0
 14 24  4  0
 14 25  4  0
 15 17  4  0
 17 20  4  0
 18 23  1  0
 19 25  4  0
M  END
$$$$

 Created by Python create_sdf_string function

 25 28  0  0  0  0  0  0  0  0999 V2000
   13.1533   -5.2399   21.0682 C   0  0  0  0  0  0  0  0  0  0  0  0
   10.4729   -4.0295   17.6135 C   0  0  0  0  0  0  0  0  0  0  0  0
   10.4789   -4.3641   20.9564 C   0  0  0  0  0  0  0  0  0  0  0  0
    8.7421   -5.1412   16.3650 C   0  0  0  0  0  0  0  0  0  0  0  0
   11.4353   -2.9204   17.8044 C   0  0  0  0  0  0  0  0  0  0  0  0
   11.1529   -4.3028   22.1277 C   0  0  0  0  0  0  0  0  0  0  0  0
   11.1290   -4.8502   19.8052 C   0  0  0  0  0  0  0  0  0  0  0  0
   12.4329   -4.2159   24.4224 C   0  0  0  0  0  0  0  0  0  0  0  0
    3.4740   -9.0387   16.5022 C   0  0  0  0  0  0  0  0  0  0  0  0
    6.8384   -7.9290   17.5282 N   0  0  0  0  0  0  0  0  0  0  0  0
    9.4126   -5.9853   18.4899 C   0  0  0  0  0  0  0  0  0  0  0  0
    4.2064  -10.3242   18.3302 C   0  0  0  0  0  0  0  0  0  0  0  0
    9.6599   -4.1551   16.4796 N   0  0  0  0  0  0  0  0  0  0  0  0
    7.0644   -6.4612   15.7375 N   0  0  0  0  0  0  0  0  0  0  0  0
    5.3549   -9.6322   18.3190 C   0  0  0  0  0  0  0  0  0  0  0  0
   10.3704   -4.9638   18.6510 C   0  0  0  0  0  0  0  0  0  0  0  0
    5.5935   -8.6419   17.4234 C   0  0  0  0  0  0  0  0  0  0  0  0
   13.0726   -4.6648   23.3394 O   0  0  0  0  0  0  0  0  0  0  0  0
    8.5955   -6.0705   17.3996 C   0  0  0  0  0  0  0  0  0  0  0  0
    4.6223   -8.3832   16.5030 C   0  0  0  0  0  0  0  0  0  0  0  0
   12.4690   -5.2624   19.9024 C   0  0  0  0  0  0  0  0  0  0  0  0
    3.2548   -9.9919   17.4189 C   0  0  0  0  0  0  0  0  0  0  0  0
   12.4767   -4.7393   22.1790 C   0  0  0  0  0  0  0  0  0  0  0  0
    7.8593   -5.3772   15.3569 N   0  0  0  0  0  0  0  0  0  0  0  0
    7.4412   -6.9038   16.9283 C   0  0  0  0  0  0  0  0  0  0  0  0
  1 21  4  0
  1 23  4  0
  2  5  1  0
  2 13  4  0
  2 16  4  0
  3  6  4  0
  3  7  4  0
  4 13  4  0
  4 19  4  0
  4 24  4  0
  6 23  4  0
  7 16  1  0
  7 21  4  0
  8 18  1  0
  9 20  4  0
  9 22  4  0
 10 17  1  0
 10 25  1  0
 11 16  4  0
 11 19  4  0
 12 15  4  0
 12 22  4  0
 14 24  4  0
 14 25  4  0
 15 17  4  0
 17 20  4  0
 18 23  1  0
 19 25  4  0
M  END
$$$$

 Created by Python create_sdf_string function

 25 28  0  0  0  0  0  0  0  0999 V2000
   13.1533   -5.2399   21.0682 C   0  0  0  0  0  0  0  0  0  0  0  0
   10.4729   -4.0295   17.6135 C   0  0  0  0  0  0  0  0  0  0  0  0
   10.4789   -4.3641   20.9564 C   0  0  0  0  0  0  0  0  0  0  0  0
    8.7421   -5.1412   16.3650 C   0  0  0  0  0  0  0  0  0  0  0  0
   11.4353   -2.9204   17.8044 C   0  0  0  0  0  0  0  0  0  0  0  0
   11.1529   -4.3028   22.1277 C   0  0  0  0  0  0  0  0  0  0  0  0
   11.1290   -4.8502   19.8052 C   0  0  0  0  0  0  0  0  0  0  0  0
   12.4329   -4.2159   24.4224 C   0  0  0  0  0  0  0  0  0  0  0  0
    3.4740   -9.0387   16.5022 C   0  0  0  0  0  0  0  0  0  0  0  0
    6.8384   -7.9290   17.5282 N   0  0  0  0  0  0  0  0  0  0  0  0
    9.4126   -5.9853   18.4899 C   0  0  0  0  0  0  0  0  0  0  0  0
    4.2064  -10.3242   18.3302 C   0  0  0  0  0  0  0  0  0  0  0  0
    9.6599   -4.1551   16.4796 N   0  0  0  0  0  0  0  0  0  0  0  0
    7.0644   -6.4612   15.7375 N   0  0  0  0  0  0  0  0  0  0  0  0
    5.3549   -9.6322   18.3190 C   0  0  0  0  0  0  0  0  0  0  0  0
   10.3704   -4.9638   18.6510 C   0  0  0  0  0  0  0  0  0  0  0  0
    5.5935   -8.6419   17.4234 C   0  0  0  0  0  0  0  0  0  0  0  0
   13.0726   -4.6648   23.3394 O   0  0  0  0  0  0  0  0  0  0  0  0
    8.5955   -6.0705   17.3996 C   0  0  0  0  0  0  0  0  0  0  0  0
    4.6223   -8.3832   16.5030 C   0  0  0  0  0  0  0  0  0  0  0  0
   12.4690   -5.2624   19.9024 C   0  0  0  0  0  0  0  0  0  0  0  0
    3.2548   -9.9919   17.4189 C   0  0  0  0  0  0  0  0  0  0  0  0
   12.4767   -4.7393   22.1790 C   0  0  0  0  0  0  0  0  0  0  0  0
    7.8593   -5.3772   15.3569 N   0  0  0  0  0  0  0  0  0  0  0  0
    7.4412   -6.9038   16.9283 C   0  0  0  0  0  0  0  0  0  0  0  0
  1 21  4  0
  1 23  4  0
  2  5  1  0
  2 13  4  0
  2 16  4  0
  3  6  4  0
  3  7  4  0
  4 13  4  0
  4 19  4  0
  4 24  4  0
  6 23  4  0
  7 16  1  0
  7 21  4  0
  8 18  1  0
  9 20  4  0
  9 22  4  0
 10 17  1  0
 10 25  1  0
 11 16  4  0
 11 19  4  0
 12 15  4  0
 12 22  4  0
 14 24  4  0
 14 25  4  0
 15 17  4  0
 17 20  4  0
 18 23  1  0
 19 25  4  0
M  END
$$$$

 Created by Python create_sdf_string function

 25 28  0  0  0  0  0  0  0  0999 V2000
   13.1533   -5.2399   21.0682 C   0  0  0  0  0  0  0  0  0  0  0  0
   10.4729   -4.0295   17.6135 C   0  0  0  0  0  0  0  0  0  0  0  0
   10.4789   -4.3641   20.9564 C   0  0  0  0  0  0  0  0  0  0  0  0
    8.7421   -5.1412   16.3650 C   0  0  0  0  0  0  0  0  0  0  0  0
   11.4353   -2.9204   17.8044 C   0  0  0  0  0  0  0  0  0  0  0  0
   11.1529   -4.3028   22.1277 C   0  0  0  0  0  0  0  0  0  0  0  0
   11.1290   -4.8502   19.8052 C   0  0  0  0  0  0  0  0  0  0  0  0
   12.4329   -4.2159   24.4224 C   0  0  0  0  0  0  0  0  0  0  0  0
    3.4740   -9.0387   16.5022 C   0  0  0  0  0  0  0  0  0  0  0  0
    6.8384   -7.9290   17.5282 N   0  0  0  0  0  0  0  0  0  0  0  0
    9.4126   -5.9853   18.4899 C   0  0  0  0  0  0  0  0  0  0  0  0
    4.2064  -10.3242   18.3302 C   0  0  0  0  0  0  0  0  0  0  0  0
    9.6599   -4.1551   16.4796 N   0  0  0  0  0  0  0  0  0  0  0  0
    7.0644   -6.4612   15.7375 N   0  0  0  0  0  0  0  0  0  0  0  0
    5.3549   -9.6322   18.3190 C   0  0  0  0  0  0  0  0  0  0  0  0
   10.3704   -4.9638   18.6510 C   0  0  0  0  0  0  0  0  0  0  0  0
    5.5935   -8.6419   17.4234 C   0  0  0  0  0  0  0  0  0  0  0  0
   13.0726   -4.6648   23.3394 O   0  0  0  0  0  0  0  0  0  0  0  0
    8.5955   -6.0705   17.3996 C   0  0  0  0  0  0  0  0  0  0  0  0
    4.6223   -8.3832   16.5030 C   0  0  0  0  0  0  0  0  0  0  0  0
   12.4690   -5.2624   19.9024 C   0  0  0  0  0  0  0  0  0  0  0  0
    3.2548   -9.9919   17.4189 C   0  0  0  0  0  0  0  0  0  0  0  0
   12.4767   -4.7393   22.1790 C   0  0  0  0  0  0  0  0  0  0  0  0
    7.8593   -5.3772   15.3569 N   0  0  0  0  0  0  0  0  0  0  0  0
    7.4412   -6.9038   16.9283 C   0  0  0  0  0  0  0  0  0  0  0  0
  1 21  4  0
  1 23  4  0
  2  5  1  0
  2 13  4  0
  2 16  4  0
  3  6  4  0
  3  7  4  0
  4 13  4  0
  4 19  4  0
  4 24  4  0
  6 23  4  0
  7 16  1  0
  7 21  4  0
  8 18  1  0
  9 20  4  0
  9 22  4  0
 10 17  1  0
 10 25  1  0
 11 16  4  0
 11 19  4  0
 12 15  4  0
 12 22  4  0
 14 24  4  0
 14 25  4  0
 15 17  4  0
 17 20  4  0
 18 23  1  0
 19 25  4  0
M  END
$$$$

 Created by Python create_sdf_string function

 25 28  0  0  0  0  0  0  0  0999 V2000
   13.1533   -5.2399   21.0682 C   0  0  0  0  0  0  0  0  0  0  0  0
   10.4729   -4.0295   17.6135 C   0  0  0  0  0  0  0  0  0  0  0  0
   10.4789   -4.3641   20.9564 C   0  0  0  0  0  0  0  0  0  0  0  0
    8.7421   -5.1412   16.3650 C   0  0  0  0  0  0  0  0  0  0  0  0
   11.4353   -2.9204   17.8044 C   0  0  0  0  0  0  0  0  0  0  0  0
   11.1529   -4.3028   22.1277 C   0  0  0  0  0  0  0  0  0  0  0  0
   11.1290   -4.8502   19.8052 C   0  0  0  0  0  0  0  0  0  0  0  0
   12.4329   -4.2159   24.4224 C   0  0  0  0  0  0  0  0  0  0  0  0
    3.4740   -9.0387   16.5022 C   0  0  0  0  0  0  0  0  0  0  0  0
    6.8384   -7.9290   17.5282 N   0  0  0  0  0  0  0  0  0  0  0  0
    9.4126   -5.9853   18.4899 C   0  0  0  0  0  0  0  0  0  0  0  0
    4.2064  -10.3242   18.3302 C   0  0  0  0  0  0  0  0  0  0  0  0
    9.6599   -4.1551   16.4796 N   0  0  0  0  0  0  0  0  0  0  0  0
    7.0644   -6.4612   15.7375 N   0  0  0  0  0  0  0  0  0  0  0  0
    5.3549   -9.6322   18.3190 C   0  0  0  0  0  0  0  0  0  0  0  0
   10.3704   -4.9638   18.6510 C   0  0  0  0  0  0  0  0  0  0  0  0
    5.5935   -8.6419   17.4234 C   0  0  0  0  0  0  0  0  0  0  0  0
   13.0726   -4.6648   23.3394 O   0  0  0  0  0  0  0  0  0  0  0  0
    8.5955   -6.0705   17.3996 C   0  0  0  0  0  0  0  0  0  0  0  0
    4.6223   -8.3832   16.5030 C   0  0  0  0  0  0  0  0  0  0  0  0
   12.4690   -5.2624   19.9024 C   0  0  0  0  0  0  0  0  0  0  0  0
    3.2548   -9.9919   17.4189 C   0  0  0  0  0  0  0  0  0  0  0  0
   12.4767   -4.7393   22.1790 C   0  0  0  0  0  0  0  0  0  0  0  0
    7.8593   -5.3772   15.3569 N   0  0  0  0  0  0  0  0  0  0  0  0
    7.4412   -6.9038   16.9283 C   0  0  0  0  0  0  0  0  0  0  0  0
  1 21  4  0
  1 23  4  0
  2  5  1  0
  2 13  4  0
  2 16  4  0
  3  6  4  0
  3  7  4  0
  4 13  4  0
  4 19  4  0
  4 24  4  0
  6 23  4  0
  7 16  1  0
  7 21  4  0
  8 18  1  0
  9 20  4  0
  9 22  4  0
 10 17  1  0
 10 25  1  0
 11 16  4  0
 11 19  4  0
 12 15  4  0
 12 22  4  0
 14 24  4  0
 14 25  4  0
 15 17  4  0
 17 20  4  0
 18 23  1  0
 19 25  4  0
M  END
$$$$

 Created by Python create_sdf_string function

 25 28  0  0  0  0  0  0  0  0999 V2000
   13.1533   -5.2399   21.0682 C   0  0  0  0  0  0  0  0  0  0  0  0
   10.4729   -4.0295   17.6135 C   0  0  0  0  0  0  0  0  0  0  0  0
   10.4789   -4.3641   20.9564 C   0  0  0  0  0  0  0  0  0  0  0  0
    8.7421   -5.1412   16.3650 C   0  0  0  0  0  0  0  0  0  0  0  0
   11.4353   -2.9204   17.8044 C   0  0  0  0  0  0  0  0  0  0  0  0
   11.1529   -4.3028   22.1277 C   0  0  0  0  0  0  0  0  0  0  0  0
   11.1290   -4.8502   19.8052 C   0  0  0  0  0  0  0  0  0  0  0  0
   12.4329   -4.2159   24.4224 C   0  0  0  0  0  0  0  0  0  0  0  0
    3.4740   -9.0387   16.5022 C   0  0  0  0  0  0  0  0  0  0  0  0
    6.8384   -7.9290   17.5282 N   0  0  0  0  0  0  0  0  0  0  0  0
    9.4126   -5.9853   18.4899 C   0  0  0  0  0  0  0  0  0  0  0  0
    4.2064  -10.3242   18.3302 C   0  0  0  0  0  0  0  0  0  0  0  0
    9.6599   -4.1551   16.4796 N   0  0  0  0  0  0  0  0  0  0  0  0
    7.0644   -6.4612   15.7375 N   0  0  0  0  0  0  0  0  0  0  0  0
    5.3549   -9.6322   18.3190 C   0  0  0  0  0  0  0  0  0  0  0  0
   10.3704   -4.9638   18.6510 C   0  0  0  0  0  0  0  0  0  0  0  0
    5.5935   -8.6419   17.4234 C   0  0  0  0  0  0  0  0  0  0  0  0
   13.0726   -4.6648   23.3394 O   0  0  0  0  0  0  0  0  0  0  0  0
    8.5955   -6.0705   17.3996 C   0  0  0  0  0  0  0  0  0  0  0  0
    4.6223   -8.3832   16.5030 C   0  0  0  0  0  0  0  0  0  0  0  0
   12.4690   -5.2624   19.9024 C   0  0  0  0  0  0  0  0  0  0  0  0
    3.2548   -9.9919   17.4189 C   0  0  0  0  0  0  0  0  0  0  0  0
   12.4767   -4.7393   22.1790 C   0  0  0  0  0  0  0  0  0  0  0  0
    7.8593   -5.3772   15.3569 N   0  0  0  0  0  0  0  0  0  0  0  0
    7.4412   -6.9038   16.9283 C   0  0  0  0  0  0  0  0  0  0  0  0
  1 21  4  0
  1 23  4  0
  2  5  1  0
  2 13  4  0
  2 16  4  0
  3  6  4  0
  3  7  4  0
  4 13  4  0
  4 19  4  0
  4 24  4  0
  6 23  4  0
  7 16  1  0
  7 21  4  0
  8 18  1  0
  9 20  4  0
  9 22  4  0
 10 17  1  0
 10 25  1  0
 11 16  4  0
 11 19  4  0
 12 15  4  0
 12 22  4  0
 14 24  4  0
 14 25  4  0
 15 17  4  0
 17 20  4  0
 18 23  1  0
 19 25  4  0
M  END
$$$$

 Created by Python create_sdf_string function

 25 28  0  0  0  0  0  0  0  0999 V2000
   13.1533   -5.2399   21.0682 C   0  0  0  0  0  0  0  0  0  0  0  0
   10.4729   -4.0295   17.6135 C   0  0  0  0  0  0  0  0  0  0  0  0
   10.4789   -4.3641   20.9564 C   0  0  0  0  0  0  0  0  0  0  0  0
    8.7421   -5.1412   16.3650 C   0  0  0  0  0  0  0  0  0  0  0  0
   11.4353   -2.9204   17.8044 C   0  0  0  0  0  0  0  0  0  0  0  0
   11.1529   -4.3028   22.1277 C   0  0  0  0  0  0  0  0  0  0  0  0
   11.1290   -4.8502   19.8052 C   0  0  0  0  0  0  0  0  0  0  0  0
   12.4329   -4.2159   24.4224 C   0  0  0  0  0  0  0  0  0  0  0  0
    3.4740   -9.0387   16.5022 C   0  0  0  0  0  0  0  0  0  0  0  0
    6.8384   -7.9290   17.5282 N   0  0  0  0  0  0  0  0  0  0  0  0
    9.4126   -5.9853   18.4899 C   0  0  0  0  0  0  0  0  0  0  0  0
    4.2064  -10.3242   18.3302 C   0  0  0  0  0  0  0  0  0  0  0  0
    9.6599   -4.1551   16.4796 N   0  0  0  0  0  0  0  0  0  0  0  0
    7.0644   -6.4612   15.7375 N   0  0  0  0  0  0  0  0  0  0  0  0
    5.3549   -9.6322   18.3190 C   0  0  0  0  0  0  0  0  0  0  0  0
   10.3704   -4.9638   18.6510 C   0  0  0  0  0  0  0  0  0  0  0  0
    5.5935   -8.6419   17.4234 C   0  0  0  0  0  0  0  0  0  0  0  0
   13.0726   -4.6648   23.3394 O   0  0  0  0  0  0  0  0  0  0  0  0
    8.5955   -6.0705   17.3996 C   0  0  0  0  0  0  0  0  0  0  0  0
    4.6223   -8.3832   16.5030 C   0  0  0  0  0  0  0  0  0  0  0  0
   12.4690   -5.2624   19.9024 C   0  0  0  0  0  0  0  0  0  0  0  0
    3.2548   -9.9919   17.4189 C   0  0  0  0  0  0  0  0  0  0  0  0
   12.4767   -4.7393   22.1790 C   0  0  0  0  0  0  0  0  0  0  0  0
    7.8593   -5.3772   15.3569 N   0  0  0  0  0  0  0  0  0  0  0  0
    7.4412   -6.9038   16.9283 C   0  0  0  0  0  0  0  0  0  0  0  0
  1 21  4  0
  1 23  4  0
  2  5  1  0
  2 13  4  0
  2 16  4  0
  3  6  4  0
  3  7  4  0
  4 13  4  0
  4 19  4  0
  4 24  4  0
  6 23  4  0
  7 16  1  0
  7 21  4  0
  8 18  1  0
  9 20  4  0
  9 22  4  0
 10 17  1  0
 10 25  1  0
 11 16  4  0
 11 19  4  0
 12 15  4  0
 12 22  4  0
 14 24  4  0
 14 25  4  0
 15 17  4  0
 17 20  4  0
 18 23  1  0
 19 25  4  0
M  END
$$$$

 Created by Python create_sdf_string function

 25 28  0  0  0  0  0  0  0  0999 V2000
   13.1533   -5.2399   21.0682 C   0  0  0  0  0  0  0  0  0  0  0  0
   10.4729   -4.0295   17.6135 C   0  0  0  0  0  0  0  0  0  0  0  0
   10.4789   -4.3641   20.9564 C   0  0  0  0  0  0  0  0  0  0  0  0
    8.7421   -5.1412   16.3650 C   0  0  0  0  0  0  0  0  0  0  0  0
   11.4353   -2.9204   17.8044 C   0  0  0  0  0  0  0  0  0  0  0  0
   11.1529   -4.3028   22.1277 C   0  0  0  0  0  0  0  0  0  0  0  0
   11.1290   -4.8502   19.8052 C   0  0  0  0  0  0  0  0  0  0  0  0
   12.4329   -4.2159   24.4224 C   0  0  0  0  0  0  0  0  0  0  0  0
    3.4740   -9.0387   16.5022 C   0  0  0  0  0  0  0  0  0  0  0  0
    6.8384   -7.9290   17.5282 N   0  0  0  0  0  0  0  0  0  0  0  0
    9.4126   -5.9853   18.4899 C   0  0  0  0  0  0  0  0  0  0  0  0
    4.2064  -10.3242   18.3302 C   0  0  0  0  0  0  0  0  0  0  0  0
    9.6599   -4.1551   16.4796 N   0  0  0  0  0  0  0  0  0  0  0  0
    7.0644   -6.4612   15.7375 N   0  0  0  0  0  0  0  0  0  0  0  0
    5.3549   -9.6322   18.3190 C   0  0  0  0  0  0  0  0  0  0  0  0
   10.3704   -4.9638   18.6510 C   0  0  0  0  0  0  0  0  0  0  0  0
    5.5935   -8.6419   17.4234 C   0  0  0  0  0  0  0  0  0  0  0  0
   13.0726   -4.6648   23.3394 O   0  0  0  0  0  0  0  0  0  0  0  0
    8.5955   -6.0705   17.3996 C   0  0  0  0  0  0  0  0  0  0  0  0
    4.6223   -8.3832   16.5030 C   0  0  0  0  0  0  0  0  0  0  0  0
   12.4690   -5.2624   19.9024 C   0  0  0  0  0  0  0  0  0  0  0  0
    3.2548   -9.9919   17.4189 C   0  0  0  0  0  0  0  0  0  0  0  0
   12.4767   -4.7393   22.1790 C   0  0  0  0  0  0  0  0  0  0  0  0
    7.8593   -5.3772   15.3569 N   0  0  0  0  0  0  0  0  0  0  0  0
    7.4412   -6.9038   16.9283 C   0  0  0  0  0  0  0  0  0  0  0  0
  1 21  4  0
  1 23  4  0
  2  5  1  0
  2 13  4  0
  2 16  4  0
  3  6  4  0
  3  7  4  0
  4 13  4  0
  4 19  4  0
  4 24  4  0
  6 23  4  0
  7 16  1  0
  7 21  4  0
  8 18  1  0
  9 20  4  0
  9 22  4  0
 10 17  1  0
 10 25  1  0
 11 16  4  0
 11 19  4  0
 12 15  4  0
 12 22  4  0
 14 24  4  0
 14 25  4  0
 15 17  4  0
 17 20  4  0
 18 23  1  0
 19 25  4  0
M  END
$$$$

 Created by Python create_sdf_string function

 25 28  0  0  0  0  0  0  0  0999 V2000
   13.1533   -5.2399   21.0682 C   0  0  0  0  0  0  0  0  0  0  0  0
   10.4729   -4.0295   17.6135 C   0  0  0  0  0  0  0  0  0  0  0  0
   10.4789   -4.3641   20.9564 C   0  0  0  0  0  0  0  0  0  0  0  0
    8.7421   -5.1412   16.3650 C   0  0  0  0  0  0  0  0  0  0  0  0
   11.4353   -2.9204   17.8044 C   0  0  0  0  0  0  0  0  0  0  0  0
   11.1529   -4.3028   22.1277 C   0  0  0  0  0  0  0  0  0  0  0  0
   11.1290   -4.8502   19.8052 C   0  0  0  0  0  0  0  0  0  0  0  0
   12.4329   -4.2159   24.4224 C   0  0  0  0  0  0  0  0  0  0  0  0
    3.4740   -9.0387   16.5022 C   0  0  0  0  0  0  0  0  0  0  0  0
    6.8384   -7.9290   17.5282 N   0  0  0  0  0  0  0  0  0  0  0  0
    9.4126   -5.9853   18.4899 C   0  0  0  0  0  0  0  0  0  0  0  0
    4.2064  -10.3242   18.3302 C   0  0  0  0  0  0  0  0  0  0  0  0
    9.6599   -4.1551   16.4796 N   0  0  0  0  0  0  0  0  0  0  0  0
    7.0644   -6.4612   15.7375 N   0  0  0  0  0  0  0  0  0  0  0  0
    5.3549   -9.6322   18.3190 C   0  0  0  0  0  0  0  0  0  0  0  0
   10.3704   -4.9638   18.6510 C   0  0  0  0  0  0  0  0  0  0  0  0
    5.5935   -8.6419   17.4234 C   0  0  0  0  0  0  0  0  0  0  0  0
   13.0726   -4.6648   23.3394 O   0  0  0  0  0  0  0  0  0  0  0  0
    8.5955   -6.0705   17.3996 C   0  0  0  0  0  0  0  0  0  0  0  0
    4.6223   -8.3832   16.5030 C   0  0  0  0  0  0  0  0  0  0  0  0
   12.4690   -5.2624   19.9024 C   0  0  0  0  0  0  0  0  0  0  0  0
    3.2548   -9.9919   17.4189 C   0  0  0  0  0  0  0  0  0  0  0  0
   12.4767   -4.7393   22.1790 C   0  0  0  0  0  0  0  0  0  0  0  0
    7.8593   -5.3772   15.3569 N   0  0  0  0  0  0  0  0  0  0  0  0
    7.4412   -6.9038   16.9283 C   0  0  0  0  0  0  0  0  0  0  0  0
  1 21  4  0
  1 23  4  0
  2  5  1  0
  2 13  4  0
  2 16  4  0
  3  6  4  0
  3  7  4  0
  4 13  4  0
  4 19  4  0
  4 24  4  0
  6 23  4  0
  7 16  1  0
  7 21  4  0
  8 18  1  0
  9 20  4  0
  9 22  4  0
 10 17  1  0
 10 25  1  0
 11 16  4  0
 11 19  4  0
 12 15  4  0
 12 22  4  0
 14 24  4  0
 14 25  4  0
 15 17  4  0
 17 20  4  0
 18 23  1  0
 19 25  4  0
M  END
$$$$

 Created by Python create_sdf_string function

 25 28  0  0  0  0  0  0  0  0999 V2000
   13.1533   -5.2399   21.0682 C   0  0  0  0  0  0  0  0  0  0  0  0
   10.4729   -4.0295   17.6135 C   0  0  0  0  0  0  0  0  0  0  0  0
   10.4789   -4.3641   20.9564 C   0  0  0  0  0  0  0  0  0  0  0  0
    8.7421   -5.1412   16.3650 C   0  0  0  0  0  0  0  0  0  0  0  0
   11.4353   -2.9204   17.8044 C   0  0  0  0  0  0  0  0  0  0  0  0
   11.1529   -4.3028   22.1277 C   0  0  0  0  0  0  0  0  0  0  0  0
   11.1290   -4.8502   19.8052 C   0  0  0  0  0  0  0  0  0  0  0  0
   12.4329   -4.2159   24.4224 C   0  0  0  0  0  0  0  0  0  0  0  0
    3.4740   -9.0387   16.5022 C   0  0  0  0  0  0  0  0  0  0  0  0
    6.8384   -7.9290   17.5282 N   0  0  0  0  0  0  0  0  0  0  0  0
    9.4126   -5.9853   18.4899 C   0  0  0  0  0  0  0  0  0  0  0  0
    4.2064  -10.3242   18.3302 C   0  0  0  0  0  0  0  0  0  0  0  0
    9.6599   -4.1551   16.4796 N   0  0  0  0  0  0  0  0  0  0  0  0
    7.0644   -6.4612   15.7375 N   0  0  0  0  0  0  0  0  0  0  0  0
    5.3549   -9.6322   18.3190 C   0  0  0  0  0  0  0  0  0  0  0  0
   10.3704   -4.9638   18.6510 C   0  0  0  0  0  0  0  0  0  0  0  0
    5.5935   -8.6419   17.4234 C   0  0  0  0  0  0  0  0  0  0  0  0
   13.0726   -4.6648   23.3394 O   0  0  0  0  0  0  0  0  0  0  0  0
    8.5955   -6.0705   17.3996 C   0  0  0  0  0  0  0  0  0  0  0  0
    4.6223   -8.3832   16.5030 C   0  0  0  0  0  0  0  0  0  0  0  0
   12.4690   -5.2624   19.9024 C   0  0  0  0  0  0  0  0  0  0  0  0
    3.2548   -9.9919   17.4189 C   0  0  0  0  0  0  0  0  0  0  0  0
   12.4767   -4.7393   22.1790 C   0  0  0  0  0  0  0  0  0  0  0  0
    7.8593   -5.3772   15.3569 N   0  0  0  0  0  0  0  0  0  0  0  0
    7.4412   -6.9038   16.9283 C   0  0  0  0  0  0  0  0  0  0  0  0
  1 21  4  0
  1 23  4  0
  2  5  1  0
  2 13  4  0
  2 16  4  0
  3  6  4  0
  3  7  4  0
  4 13  4  0
  4 19  4  0
  4 24  4  0
  6 23  4  0
  7 16  1  0
  7 21  4  0
  8 18  1  0
  9 20  4  0
  9 22  4  0
 10 17  1  0
 10 25  1  0
 11 16  4  0
 11 19  4  0
 12 15  4  0
 12 22  4  0
 14 24  4  0
 14 25  4  0
 15 17  4  0
 17 20  4  0
 18 23  1  0
 19 25  4  0
M  END
$$$$

 Created by Python create_sdf_string function

 25 28  0  0  0  0  0  0  0  0999 V2000
   13.1533   -5.2399   21.0682 C   0  0  0  0  0  0  0  0  0  0  0  0
   10.4729   -4.0295   17.6135 C   0  0  0  0  0  0  0  0  0  0  0  0
   10.4789   -4.3641   20.9564 C   0  0  0  0  0  0  0  0  0  0  0  0
    8.7421   -5.1412   16.3650 C   0  0  0  0  0  0  0  0  0  0  0  0
   11.4353   -2.9204   17.8044 C   0  0  0  0  0  0  0  0  0  0  0  0
   11.1529   -4.3028   22.1277 C   0  0  0  0  0  0  0  0  0  0  0  0
   11.1290   -4.8502   19.8052 C   0  0  0  0  0  0  0  0  0  0  0  0
   12.4329   -4.2159   24.4224 C   0  0  0  0  0  0  0  0  0  0  0  0
    3.4740   -9.0387   16.5022 C   0  0  0  0  0  0  0  0  0  0  0  0
    6.8384   -7.9290   17.5282 N   0  0  0  0  0  0  0  0  0  0  0  0
    9.4126   -5.9853   18.4899 C   0  0  0  0  0  0  0  0  0  0  0  0
    4.2064  -10.3242   18.3302 C   0  0  0  0  0  0  0  0  0  0  0  0
    9.6599   -4.1551   16.4796 N   0  0  0  0  0  0  0  0  0  0  0  0
    7.0644   -6.4612   15.7375 N   0  0  0  0  0  0  0  0  0  0  0  0
    5.3549   -9.6322   18.3190 C   0  0  0  0  0  0  0  0  0  0  0  0
   10.3704   -4.9638   18.6510 C   0  0  0  0  0  0  0  0  0  0  0  0
    5.5935   -8.6419   17.4234 C   0  0  0  0  0  0  0  0  0  0  0  0
   13.0726   -4.6648   23.3394 O   0  0  0  0  0  0  0  0  0  0  0  0
    8.5955   -6.0705   17.3996 C   0  0  0  0  0  0  0  0  0  0  0  0
    4.6223   -8.3832   16.5030 C   0  0  0  0  0  0  0  0  0  0  0  0
   12.4690   -5.2624   19.9024 C   0  0  0  0  0  0  0  0  0  0  0  0
    3.2548   -9.9919   17.4189 C   0  0  0  0  0  0  0  0  0  0  0  0
   12.4767   -4.7393   22.1790 C   0  0  0  0  0  0  0  0  0  0  0  0
    7.8593   -5.3772   15.3569 N   0  0  0  0  0  0  0  0  0  0  0  0
    7.4412   -6.9038   16.9283 C   0  0  0  0  0  0  0  0  0  0  0  0
  1 21  4  0
  1 23  4  0
  2  5  1  0
  2 13  4  0
  2 16  4  0
  3  6  4  0
  3  7  4  0
  4 13  4  0
  4 19  4  0
  4 24  4  0
  6 23  4  0
  7 16  1  0
  7 21  4  0
  8 18  1  0
  9 20  4  0
  9 22  4  0
 10 17  1  0
 10 25  1  0
 11 16  4  0
 11 19  4  0
 12 15  4  0
 12 22  4  0
 14 24  4  0
 14 25  4  0
 15 17  4  0
 17 20  4  0
 18 23  1  0
 19 25  4  0
M  END
$$$$

 Created by Python create_sdf_string function

 25 28  0  0  0  0  0  0  0  0999 V2000
   13.1533   -5.2399   21.0682 C   0  0  0  0  0  0  0  0  0  0  0  0
   10.4729   -4.0295   17.6135 C   0  0  0  0  0  0  0  0  0  0  0  0
   10.4789   -4.3641   20.9564 C   0  0  0  0  0  0  0  0  0  0  0  0
    8.7421   -5.1412   16.3650 C   0  0  0  0  0  0  0  0  0  0  0  0
   11.4353   -2.9204   17.8044 C   0  0  0  0  0  0  0  0  0  0  0  0
   11.1529   -4.3028   22.1277 C   0  0  0  0  0  0  0  0  0  0  0  0
   11.1290   -4.8502   19.8052 C   0  0  0  0  0  0  0  0  0  0  0  0
   12.4329   -4.2159   24.4224 C   0  0  0  0  0  0  0  0  0  0  0  0
    3.4740   -9.0387   16.5022 C   0  0  0  0  0  0  0  0  0  0  0  0
    6.8384   -7.9290   17.5282 N   0  0  0  0  0  0  0  0  0  0  0  0
    9.4126   -5.9853   18.4899 C   0  0  0  0  0  0  0  0  0  0  0  0
    4.2064  -10.3242   18.3302 C   0  0  0  0  0  0  0  0  0  0  0  0
    9.6599   -4.1551   16.4796 N   0  0  0  0  0  0  0  0  0  0  0  0
    7.0644   -6.4612   15.7375 N   0  0  0  0  0  0  0  0  0  0  0  0
    5.3549   -9.6322   18.3190 C   0  0  0  0  0  0  0  0  0  0  0  0
   10.3704   -4.9638   18.6510 C   0  0  0  0  0  0  0  0  0  0  0  0
    5.5935   -8.6419   17.4234 C   0  0  0  0  0  0  0  0  0  0  0  0
   13.0726   -4.6648   23.3394 O   0  0  0  0  0  0  0  0  0  0  0  0
    8.5955   -6.0705   17.3996 C   0  0  0  0  0  0  0  0  0  0  0  0
    4.6223   -8.3832   16.5030 C   0  0  0  0  0  0  0  0  0  0  0  0
   12.4690   -5.2624   19.9024 C   0  0  0  0  0  0  0  0  0  0  0  0
    3.2548   -9.9919   17.4189 C   0  0  0  0  0  0  0  0  0  0  0  0
   12.4767   -4.7393   22.1790 C   0  0  0  0  0  0  0  0  0  0  0  0
    7.8593   -5.3772   15.3569 N   0  0  0  0  0  0  0  0  0  0  0  0
    7.4412   -6.9038   16.9283 C   0  0  0  0  0  0  0  0  0  0  0  0
  1 21  4  0
  1 23  4  0
  2  5  1  0
  2 13  4  0
  2 16  4  0
  3  6  4  0
  3  7  4  0
  4 13  4  0
  4 19  4  0
  4 24  4  0
  6 23  4  0
  7 16  1  0
  7 21  4  0
  8 18  1  0
  9 20  4  0
  9 22  4  0
 10 17  1  0
 10 25  1  0
 11 16  4  0
 11 19  4  0
 12 15  4  0
 12 22  4  0
 14 24  4  0
 14 25  4  0
 15 17  4  0
 17 20  4  0
 18 23  1  0
 19 25  4  0
M  END
$$$$

 Created by Python create_sdf_string function

 25 28  0  0  0  0  0  0  0  0999 V2000
   13.1533   -5.2399   21.0682 C   0  0  0  0  0  0  0  0  0  0  0  0
   10.4729   -4.0295   17.6135 C   0  0  0  0  0  0  0  0  0  0  0  0
   10.4789   -4.3641   20.9564 C   0  0  0  0  0  0  0  0  0  0  0  0
    8.7421   -5.1412   16.3650 C   0  0  0  0  0  0  0  0  0  0  0  0
   11.4353   -2.9204   17.8044 C   0  0  0  0  0  0  0  0  0  0  0  0
   11.1529   -4.3028   22.1277 C   0  0  0  0  0  0  0  0  0  0  0  0
   11.1290   -4.8502   19.8052 C   0  0  0  0  0  0  0  0  0  0  0  0
   12.4329   -4.2159   24.4224 C   0  0  0  0  0  0  0  0  0  0  0  0
    3.4740   -9.0387   16.5022 C   0  0  0  0  0  0  0  0  0  0  0  0
    6.8384   -7.9290   17.5282 N   0  0  0  0  0  0  0  0  0  0  0  0
    9.4126   -5.9853   18.4899 C   0  0  0  0  0  0  0  0  0  0  0  0
    4.2064  -10.3242   18.3302 C   0  0  0  0  0  0  0  0  0  0  0  0
    9.6599   -4.1551   16.4796 N   0  0  0  0  0  0  0  0  0  0  0  0
    7.0644   -6.4612   15.7375 N   0  0  0  0  0  0  0  0  0  0  0  0
    5.3549   -9.6322   18.3190 C   0  0  0  0  0  0  0  0  0  0  0  0
   10.3704   -4.9638   18.6510 C   0  0  0  0  0  0  0  0  0  0  0  0
    5.5935   -8.6419   17.4234 C   0  0  0  0  0  0  0  0  0  0  0  0
   13.0726   -4.6648   23.3394 O   0  0  0  0  0  0  0  0  0  0  0  0
    8.5955   -6.0705   17.3996 C   0  0  0  0  0  0  0  0  0  0  0  0
    4.6223   -8.3832   16.5030 C   0  0  0  0  0  0  0  0  0  0  0  0
   12.4690   -5.2624   19.9024 C   0  0  0  0  0  0  0  0  0  0  0  0
    3.2548   -9.9919   17.4189 C   0  0  0  0  0  0  0  0  0  0  0  0
   12.4767   -4.7393   22.1790 C   0  0  0  0  0  0  0  0  0  0  0  0
    7.8593   -5.3772   15.3569 N   0  0  0  0  0  0  0  0  0  0  0  0
    7.4412   -6.9038   16.9283 C   0  0  0  0  0  0  0  0  0  0  0  0
  1 21  4  0
  1 23  4  0
  2  5  1  0
  2 13  4  0
  2 16  4  0
  3  6  4  0
  3  7  4  0
  4 13  4  0
  4 19  4  0
  4 24  4  0
  6 23  4  0
  7 16  1  0
  7 21  4  0
  8 18  1  0
  9 20  4  0
  9 22  4  0
 10 17  1  0
 10 25  1  0
 11 16  4  0
 11 19  4  0
 12 15  4  0
 12 22  4  0
 14 24  4  0
 14 25  4  0
 15 17  4  0
 17 20  4  0
 18 23  1  0
 19 25  4  0
M  END
$$$$

 Created by Python create_sdf_string function

 25 28  0  0  0  0  0  0  0  0999 V2000
   13.1533   -5.2399   21.0682 C   0  0  0  0  0  0  0  0  0  0  0  0
   10.4729   -4.0295   17.6135 C   0  0  0  0  0  0  0  0  0  0  0  0
   10.4789   -4.3641   20.9564 C   0  0  0  0  0  0  0  0  0  0  0  0
    8.7421   -5.1412   16.3650 C   0  0  0  0  0  0  0  0  0  0  0  0
   11.4353   -2.9204   17.8044 C   0  0  0  0  0  0  0  0  0  0  0  0
   11.1529   -4.3028   22.1277 C   0  0  0  0  0  0  0  0  0  0  0  0
   11.1290   -4.8502   19.8052 C   0  0  0  0  0  0  0  0  0  0  0  0
   12.4329   -4.2159   24.4224 C   0  0  0  0  0  0  0  0  0  0  0  0
    3.4740   -9.0387   16.5022 C   0  0  0  0  0  0  0  0  0  0  0  0
    6.8384   -7.9290   17.5282 N   0  0  0  0  0  0  0  0  0  0  0  0
    9.4126   -5.9853   18.4899 C   0  0  0  0  0  0  0  0  0  0  0  0
    4.2064  -10.3242   18.3302 C   0  0  0  0  0  0  0  0  0  0  0  0
    9.6599   -4.1551   16.4796 N   0  0  0  0  0  0  0  0  0  0  0  0
    7.0644   -6.4612   15.7375 N   0  0  0  0  0  0  0  0  0  0  0  0
    5.3549   -9.6322   18.3190 C   0  0  0  0  0  0  0  0  0  0  0  0
   10.3704   -4.9638   18.6510 C   0  0  0  0  0  0  0  0  0  0  0  0
    5.5935   -8.6419   17.4234 C   0  0  0  0  0  0  0  0  0  0  0  0
   13.0726   -4.6648   23.3394 O   0  0  0  0  0  0  0  0  0  0  0  0
    8.5955   -6.0705   17.3996 C   0  0  0  0  0  0  0  0  0  0  0  0
    4.6223   -8.3832   16.5030 C   0  0  0  0  0  0  0  0  0  0  0  0
   12.4690   -5.2624   19.9024 C   0  0  0  0  0  0  0  0  0  0  0  0
    3.2548   -9.9919   17.4189 C   0  0  0  0  0  0  0  0  0  0  0  0
   12.4767   -4.7393   22.1790 C   0  0  0  0  0  0  0  0  0  0  0  0
    7.8593   -5.3772   15.3569 N   0  0  0  0  0  0  0  0  0  0  0  0
    7.4412   -6.9038   16.9283 C   0  0  0  0  0  0  0  0  0  0  0  0
  1 21  4  0
  1 23  4  0
  2  5  1  0
  2 13  4  0
  2 16  4  0
  3  6  4  0
  3  7  4  0
  4 13  4  0
  4 19  4  0
  4 24  4  0
  6 23  4  0
  7 16  1  0
  7 21  4  0
  8 18  1  0
  9 20  4  0
  9 22  4  0
 10 17  1  0
 10 25  1  0
 11 16  4  0
 11 19  4  0
 12 15  4  0
 12 22  4  0
 14 24  4  0
 14 25  4  0
 15 17  4  0
 17 20  4  0
 18 23  1  0
 19 25  4  0
M  END
$$$$

 Created by Python create_sdf_string function

 25 28  0  0  0  0  0  0  0  0999 V2000
   13.1533   -5.2399   21.0682 C   0  0  0  0  0  0  0  0  0  0  0  0
   10.4729   -4.0295   17.6135 C   0  0  0  0  0  0  0  0  0  0  0  0
   10.4789   -4.3641   20.9564 C   0  0  0  0  0  0  0  0  0  0  0  0
    8.7421   -5.1412   16.3650 C   0  0  0  0  0  0  0  0  0  0  0  0
   11.4353   -2.9204   17.8044 C   0  0  0  0  0  0  0  0  0  0  0  0
   11.1529   -4.3028   22.1277 C   0  0  0  0  0  0  0  0  0  0  0  0
   11.1290   -4.8502   19.8052 C   0  0  0  0  0  0  0  0  0  0  0  0
   12.4329   -4.2159   24.4224 C   0  0  0  0  0  0  0  0  0  0  0  0
    3.4740   -9.0387   16.5022 C   0  0  0  0  0  0  0  0  0  0  0  0
    6.8384   -7.9290   17.5282 N   0  0  0  0  0  0  0  0  0  0  0  0
    9.4126   -5.9853   18.4899 C   0  0  0  0  0  0  0  0  0  0  0  0
    4.2064  -10.3242   18.3302 C   0  0  0  0  0  0  0  0  0  0  0  0
    9.6599   -4.1551   16.4796 N   0  0  0  0  0  0  0  0  0  0  0  0
    7.0644   -6.4612   15.7375 N   0  0  0  0  0  0  0  0  0  0  0  0
    5.3549   -9.6322   18.3190 C   0  0  0  0  0  0  0  0  0  0  0  0
   10.3704   -4.9638   18.6510 C   0  0  0  0  0  0  0  0  0  0  0  0
    5.5935   -8.6419   17.4234 C   0  0  0  0  0  0  0  0  0  0  0  0
   13.0726   -4.6648   23.3394 O   0  0  0  0  0  0  0  0  0  0  0  0
    8.5955   -6.0705   17.3996 C   0  0  0  0  0  0  0  0  0  0  0  0
    4.6223   -8.3832   16.5030 C   0  0  0  0  0  0  0  0  0  0  0  0
   12.4690   -5.2624   19.9024 C   0  0  0  0  0  0  0  0  0  0  0  0
    3.2548   -9.9919   17.4189 C   0  0  0  0  0  0  0  0  0  0  0  0
   12.4767   -4.7393   22.1790 C   0  0  0  0  0  0  0  0  0  0  0  0
    7.8593   -5.3772   15.3569 N   0  0  0  0  0  0  0  0  0  0  0  0
    7.4412   -6.9038   16.9283 C   0  0  0  0  0  0  0  0  0  0  0  0
  1 21  4  0
  1 23  4  0
  2  5  1  0
  2 13  4  0
  2 16  4  0
  3  6  4  0
  3  7  4  0
  4 13  4  0
  4 19  4  0
  4 24  4  0
  6 23  4  0
  7 16  1  0
  7 21  4  0
  8 18  1  0
  9 20  4  0
  9 22  4  0
 10 17  1  0
 10 25  1  0
 11 16  4  0
 11 19  4  0
 12 15  4  0
 12 22  4  0
 14 24  4  0
 14 25  4  0
 15 17  4  0
 17 20  4  0
 18 23  1  0
 19 25  4  0
M  END
$$$$

 Created by Python create_sdf_string function

 25 28  0  0  0  0  0  0  0  0999 V2000
   13.1533   -5.2399   21.0682 C   0  0  0  0  0  0  0  0  0  0  0  0
   10.4729   -4.0295   17.6135 C   0  0  0  0  0  0  0  0  0  0  0  0
   10.4789   -4.3641   20.9564 C   0  0  0  0  0  0  0  0  0  0  0  0
    8.7421   -5.1412   16.3650 C   0  0  0  0  0  0  0  0  0  0  0  0
   11.4353   -2.9204   17.8044 C   0  0  0  0  0  0  0  0  0  0  0  0
   11.1529   -4.3028   22.1277 C   0  0  0  0  0  0  0  0  0  0  0  0
   11.1290   -4.8502   19.8052 C   0  0  0  0  0  0  0  0  0  0  0  0
   12.4329   -4.2159   24.4224 C   0  0  0  0  0  0  0  0  0  0  0  0
    3.4740   -9.0387   16.5022 C   0  0  0  0  0  0  0  0  0  0  0  0
    6.8384   -7.9290   17.5282 N   0  0  0  0  0  0  0  0  0  0  0  0
    9.4126   -5.9853   18.4899 C   0  0  0  0  0  0  0  0  0  0  0  0
    4.2064  -10.3242   18.3302 C   0  0  0  0  0  0  0  0  0  0  0  0
    9.6599   -4.1551   16.4796 N   0  0  0  0  0  0  0  0  0  0  0  0
    7.0644   -6.4612   15.7375 N   0  0  0  0  0  0  0  0  0  0  0  0
    5.3549   -9.6322   18.3190 C   0  0  0  0  0  0  0  0  0  0  0  0
   10.3704   -4.9638   18.6510 C   0  0  0  0  0  0  0  0  0  0  0  0
    5.5935   -8.6419   17.4234 C   0  0  0  0  0  0  0  0  0  0  0  0
   13.0726   -4.6648   23.3394 O   0  0  0  0  0  0  0  0  0  0  0  0
    8.5955   -6.0705   17.3996 C   0  0  0  0  0  0  0  0  0  0  0  0
    4.6223   -8.3832   16.5030 C   0  0  0  0  0  0  0  0  0  0  0  0
   12.4690   -5.2624   19.9024 C   0  0  0  0  0  0  0  0  0  0  0  0
    3.2548   -9.9919   17.4189 C   0  0  0  0  0  0  0  0  0  0  0  0
   12.4767   -4.7393   22.1790 C   0  0  0  0  0  0  0  0  0  0  0  0
    7.8593   -5.3772   15.3569 N   0  0  0  0  0  0  0  0  0  0  0  0
    7.4412   -6.9038   16.9283 C   0  0  0  0  0  0  0  0  0  0  0  0
  1 21  4  0
  1 23  4  0
  2  5  1  0
  2 13  4  0
  2 16  4  0
  3  6  4  0
  3  7  4  0
  4 13  4  0
  4 19  4  0
  4 24  4  0
  6 23  4  0
  7 16  1  0
  7 21  4  0
  8 18  1  0
  9 20  4  0
  9 22  4  0
 10 17  1  0
 10 25  1  0
 11 16  4  0
 11 19  4  0
 12 15  4  0
 12 22  4  0
 14 24  4  0
 14 25  4  0
 15 17  4  0
 17 20  4  0
 18 23  1  0
 19 25  4  0
M  END
$$$$

 Created by Python create_sdf_string function

 25 28  0  0  0  0  0  0  0  0999 V2000
   13.1533   -5.2399   21.0682 C   0  0  0  0  0  0  0  0  0  0  0  0
   10.4729   -4.0295   17.6135 C   0  0  0  0  0  0  0  0  0  0  0  0
   10.4789   -4.3641   20.9564 C   0  0  0  0  0  0  0  0  0  0  0  0
    8.7421   -5.1412   16.3650 C   0  0  0  0  0  0  0  0  0  0  0  0
   11.4353   -2.9204   17.8044 C   0  0  0  0  0  0  0  0  0  0  0  0
   11.1529   -4.3028   22.1277 C   0  0  0  0  0  0  0  0  0  0  0  0
   11.1290   -4.8502   19.8052 C   0  0  0  0  0  0  0  0  0  0  0  0
   12.4329   -4.2159   24.4224 C   0  0  0  0  0  0  0  0  0  0  0  0
    3.4740   -9.0387   16.5022 C   0  0  0  0  0  0  0  0  0  0  0  0
    6.8384   -7.9290   17.5282 N   0  0  0  0  0  0  0  0  0  0  0  0
    9.4126   -5.9853   18.4899 C   0  0  0  0  0  0  0  0  0  0  0  0
    4.2064  -10.3242   18.3302 C   0  0  0  0  0  0  0  0  0  0  0  0
    9.6599   -4.1551   16.4796 N   0  0  0  0  0  0  0  0  0  0  0  0
    7.0644   -6.4612   15.7375 N   0  0  0  0  0  0  0  0  0  0  0  0
    5.3549   -9.6322   18.3190 C   0  0  0  0  0  0  0  0  0  0  0  0
   10.3704   -4.9638   18.6510 C   0  0  0  0  0  0  0  0  0  0  0  0
    5.5935   -8.6419   17.4234 C   0  0  0  0  0  0  0  0  0  0  0  0
   13.0726   -4.6648   23.3394 O   0  0  0  0  0  0  0  0  0  0  0  0
    8.5955   -6.0705   17.3996 C   0  0  0  0  0  0  0  0  0  0  0  0
    4.6223   -8.3832   16.5030 C   0  0  0  0  0  0  0  0  0  0  0  0
   12.4690   -5.2624   19.9024 C   0  0  0  0  0  0  0  0  0  0  0  0
    3.2548   -9.9919   17.4189 C   0  0  0  0  0  0  0  0  0  0  0  0
   12.4767   -4.7393   22.1790 C   0  0  0  0  0  0  0  0  0  0  0  0
    7.8593   -5.3772   15.3569 N   0  0  0  0  0  0  0  0  0  0  0  0
    7.4412   -6.9038   16.9283 C   0  0  0  0  0  0  0  0  0  0  0  0
  1 21  4  0
  1 23  4  0
  2  5  1  0
  2 13  4  0
  2 16  4  0
  3  6  4  0
  3  7  4  0
  4 13  4  0
  4 19  4  0
  4 24  4  0
  6 23  4  0
  7 16  1  0
  7 21  4  0
  8 18  1  0
  9 20  4  0
  9 22  4  0
 10 17  1  0
 10 25  1  0
 11 16  4  0
 11 19  4  0
 12 15  4  0
 12 22  4  0
 14 24  4  0
 14 25  4  0
 15 17  4  0
 17 20  4  0
 18 23  1  0
 19 25  4  0
M  END
$$$$

 Created by Python create_sdf_string function

 25 28  0  0  0  0  0  0  0  0999 V2000
   13.1533   -5.2399   21.0682 C   0  0  0  0  0  0  0  0  0  0  0  0
   10.4729   -4.0295   17.6135 C   0  0  0  0  0  0  0  0  0  0  0  0
   10.4789   -4.3641   20.9564 C   0  0  0  0  0  0  0  0  0  0  0  0
    8.7421   -5.1412   16.3650 C   0  0  0  0  0  0  0  0  0  0  0  0
   11.4353   -2.9204   17.8044 C   0  0  0  0  0  0  0  0  0  0  0  0
   11.1529   -4.3028   22.1277 C   0  0  0  0  0  0  0  0  0  0  0  0
   11.1290   -4.8502   19.8052 C   0  0  0  0  0  0  0  0  0  0  0  0
   12.4329   -4.2159   24.4224 C   0  0  0  0  0  0  0  0  0  0  0  0
    3.4740   -9.0387   16.5022 C   0  0  0  0  0  0  0  0  0  0  0  0
    6.8384   -7.9290   17.5282 N   0  0  0  0  0  0  0  0  0  0  0  0
    9.4126   -5.9853   18.4899 C   0  0  0  0  0  0  0  0  0  0  0  0
    4.2064  -10.3242   18.3302 C   0  0  0  0  0  0  0  0  0  0  0  0
    9.6599   -4.1551   16.4796 N   0  0  0  0  0  0  0  0  0  0  0  0
    7.0644   -6.4612   15.7375 N   0  0  0  0  0  0  0  0  0  0  0  0
    5.3549   -9.6322   18.3190 C   0  0  0  0  0  0  0  0  0  0  0  0
   10.3704   -4.9638   18.6510 C   0  0  0  0  0  0  0  0  0  0  0  0
    5.5935   -8.6419   17.4234 C   0  0  0  0  0  0  0  0  0  0  0  0
   13.0726   -4.6648   23.3394 O   0  0  0  0  0  0  0  0  0  0  0  0
    8.5955   -6.0705   17.3996 C   0  0  0  0  0  0  0  0  0  0  0  0
    4.6223   -8.3832   16.5030 C   0  0  0  0  0  0  0  0  0  0  0  0
   12.4690   -5.2624   19.9024 C   0  0  0  0  0  0  0  0  0  0  0  0
    3.2548   -9.9919   17.4189 C   0  0  0  0  0  0  0  0  0  0  0  0
   12.4767   -4.7393   22.1790 C   0  0  0  0  0  0  0  0  0  0  0  0
    7.8593   -5.3772   15.3569 N   0  0  0  0  0  0  0  0  0  0  0  0
    7.4412   -6.9038   16.9283 C   0  0  0  0  0  0  0  0  0  0  0  0
  1 21  4  0
  1 23  4  0
  2  5  1  0
  2 13  4  0
  2 16  4  0
  3  6  4  0
  3  7  4  0
  4 13  4  0
  4 19  4  0
  4 24  4  0
  6 23  4  0
  7 16  1  0
  7 21  4  0
  8 18  1  0
  9 20  4  0
  9 22  4  0
 10 17  1  0
 10 25  1  0
 11 16  4  0
 11 19  4  0
 12 15  4  0
 12 22  4  0
 14 24  4  0
 14 25  4  0
 15 17  4  0
 17 20  4  0
 18 23  1  0
 19 25  4  0
M  END
$$$$

 Created by Python create_sdf_string function

 25 28  0  0  0  0  0  0  0  0999 V2000
   13.1533   -5.2399   21.0682 C   0  0  0  0  0  0  0  0  0  0  0  0
   10.4729   -4.0295   17.6135 C   0  0  0  0  0  0  0  0  0  0  0  0
   10.4789   -4.3641   20.9564 C   0  0  0  0  0  0  0  0  0  0  0  0
    8.7421   -5.1412   16.3650 C   0  0  0  0  0  0  0  0  0  0  0  0
   11.4353   -2.9204   17.8044 C   0  0  0  0  0  0  0  0  0  0  0  0
   11.1529   -4.3028   22.1277 C   0  0  0  0  0  0  0  0  0  0  0  0
   11.1290   -4.8502   19.8052 C   0  0  0  0  0  0  0  0  0  0  0  0
   12.4329   -4.2159   24.4224 C   0  0  0  0  0  0  0  0  0  0  0  0
    3.4740   -9.0387   16.5022 C   0  0  0  0  0  0  0  0  0  0  0  0
    6.8384   -7.9290   17.5282 N   0  0  0  0  0  0  0  0  0  0  0  0
    9.4126   -5.9853   18.4899 C   0  0  0  0  0  0  0  0  0  0  0  0
    4.2064  -10.3242   18.3302 C   0  0  0  0  0  0  0  0  0  0  0  0
    9.6599   -4.1551   16.4796 N   0  0  0  0  0  0  0  0  0  0  0  0
    7.0644   -6.4612   15.7375 N   0  0  0  0  0  0  0  0  0  0  0  0
    5.3549   -9.6322   18.3190 C   0  0  0  0  0  0  0  0  0  0  0  0
   10.3704   -4.9638   18.6510 C   0  0  0  0  0  0  0  0  0  0  0  0
    5.5935   -8.6419   17.4234 C   0  0  0  0  0  0  0  0  0  0  0  0
   13.0726   -4.6648   23.3394 O   0  0  0  0  0  0  0  0  0  0  0  0
    8.5955   -6.0705   17.3996 C   0  0  0  0  0  0  0  0  0  0  0  0
    4.6223   -8.3832   16.5030 C   0  0  0  0  0  0  0  0  0  0  0  0
   12.4690   -5.2624   19.9024 C   0  0  0  0  0  0  0  0  0  0  0  0
    3.2548   -9.9919   17.4189 C   0  0  0  0  0  0  0  0  0  0  0  0
   12.4767   -4.7393   22.1790 C   0  0  0  0  0  0  0  0  0  0  0  0
    7.8593   -5.3772   15.3569 N   0  0  0  0  0  0  0  0  0  0  0  0
    7.4412   -6.9038   16.9283 C   0  0  0  0  0  0  0  0  0  0  0  0
  1 21  4  0
  1 23  4  0
  2  5  1  0
  2 13  4  0
  2 16  4  0
  3  6  4  0
  3  7  4  0
  4 13  4  0
  4 19  4  0
  4 24  4  0
  6 23  4  0
  7 16  1  0
  7 21  4  0
  8 18  1  0
  9 20  4  0
  9 22  4  0
 10 17  1  0
 10 25  1  0
 11 16  4  0
 11 19  4  0
 12 15  4  0
 12 22  4  0
 14 24  4  0
 14 25  4  0
 15 17  4  0
 17 20  4  0
 18 23  1  0
 19 25  4  0
M  END
$$$$

 Created by Python create_sdf_string function

 25 28  0  0  0  0  0  0  0  0999 V2000
   13.1533   -5.2399   21.0682 C   0  0  0  0  0  0  0  0  0  0  0  0
   10.4729   -4.0295   17.6135 C   0  0  0  0  0  0  0  0  0  0  0  0
   10.4789   -4.3641   20.9564 C   0  0  0  0  0  0  0  0  0  0  0  0
    8.7421   -5.1412   16.3650 C   0  0  0  0  0  0  0  0  0  0  0  0
   11.4353   -2.9204   17.8044 C   0  0  0  0  0  0  0  0  0  0  0  0
   11.1529   -4.3028   22.1277 C   0  0  0  0  0  0  0  0  0  0  0  0
   11.1290   -4.8502   19.8052 C   0  0  0  0  0  0  0  0  0  0  0  0
   12.4329   -4.2159   24.4224 C   0  0  0  0  0  0  0  0  0  0  0  0
    3.4740   -9.0387   16.5022 C   0  0  0  0  0  0  0  0  0  0  0  0
    6.8384   -7.9290   17.5282 N   0  0  0  0  0  0  0  0  0  0  0  0
    9.4126   -5.9853   18.4899 C   0  0  0  0  0  0  0  0  0  0  0  0
    4.2064  -10.3242   18.3302 C   0  0  0  0  0  0  0  0  0  0  0  0
    9.6599   -4.1551   16.4796 N   0  0  0  0  0  0  0  0  0  0  0  0
    7.0644   -6.4612   15.7375 N   0  0  0  0  0  0  0  0  0  0  0  0
    5.3549   -9.6322   18.3190 C   0  0  0  0  0  0  0  0  0  0  0  0
   10.3704   -4.9638   18.6510 C   0  0  0  0  0  0  0  0  0  0  0  0
    5.5935   -8.6419   17.4234 C   0  0  0  0  0  0  0  0  0  0  0  0
   13.0726   -4.6648   23.3394 O   0  0  0  0  0  0  0  0  0  0  0  0
    8.5955   -6.0705   17.3996 C   0  0  0  0  0  0  0  0  0  0  0  0
    4.6223   -8.3832   16.5030 C   0  0  0  0  0  0  0  0  0  0  0  0
   12.4690   -5.2624   19.9024 C   0  0  0  0  0  0  0  0  0  0  0  0
    3.2548   -9.9919   17.4189 C   0  0  0  0  0  0  0  0  0  0  0  0
   12.4767   -4.7393   22.1790 C   0  0  0  0  0  0  0  0  0  0  0  0
    7.8593   -5.3772   15.3569 N   0  0  0  0  0  0  0  0  0  0  0  0
    7.4412   -6.9038   16.9283 C   0  0  0  0  0  0  0  0  0  0  0  0
  1 21  4  0
  1 23  4  0
  2  5  1  0
  2 13  4  0
  2 16  4  0
  3  6  4  0
  3  7  4  0
  4 13  4  0
  4 19  4  0
  4 24  4  0
  6 23  4  0
  7 16  1  0
  7 21  4  0
  8 18  1  0
  9 20  4  0
  9 22  4  0
 10 17  1  0
 10 25  1  0
 11 16  4  0
 11 19  4  0
 12 15  4  0
 12 22  4  0
 14 24  4  0
 14 25  4  0
 15 17  4  0
 17 20  4  0
 18 23  1  0
 19 25  4  0
M  END
$$$$

 Created by Python create_sdf_string function

 25 28  0  0  0  0  0  0  0  0999 V2000
   13.1533   -5.2399   21.0682 C   0  0  0  0  0  0  0  0  0  0  0  0
   10.4729   -4.0295   17.6135 C   0  0  0  0  0  0  0  0  0  0  0  0
   10.4789   -4.3641   20.9564 C   0  0  0  0  0  0  0  0  0  0  0  0
    8.7421   -5.1412   16.3650 C   0  0  0  0  0  0  0  0  0  0  0  0
   11.4353   -2.9204   17.8044 C   0  0  0  0  0  0  0  0  0  0  0  0
   11.1529   -4.3028   22.1277 C   0  0  0  0  0  0  0  0  0  0  0  0
   11.1290   -4.8502   19.8052 C   0  0  0  0  0  0  0  0  0  0  0  0
   12.4329   -4.2159   24.4224 C   0  0  0  0  0  0  0  0  0  0  0  0
    3.4740   -9.0387   16.5022 C   0  0  0  0  0  0  0  0  0  0  0  0
    6.8384   -7.9290   17.5282 N   0  0  0  0  0  0  0  0  0  0  0  0
    9.4126   -5.9853   18.4899 C   0  0  0  0  0  0  0  0  0  0  0  0
    4.2064  -10.3242   18.3302 C   0  0  0  0  0  0  0  0  0  0  0  0
    9.6599   -4.1551   16.4796 N   0  0  0  0  0  0  0  0  0  0  0  0
    7.0644   -6.4612   15.7375 N   0  0  0  0  0  0  0  0  0  0  0  0
    5.3549   -9.6322   18.3190 C   0  0  0  0  0  0  0  0  0  0  0  0
   10.3704   -4.9638   18.6510 C   0  0  0  0  0  0  0  0  0  0  0  0
    5.5935   -8.6419   17.4234 C   0  0  0  0  0  0  0  0  0  0  0  0
   13.0726   -4.6648   23.3394 O   0  0  0  0  0  0  0  0  0  0  0  0
    8.5955   -6.0705   17.3996 C   0  0  0  0  0  0  0  0  0  0  0  0
    4.6223   -8.3832   16.5030 C   0  0  0  0  0  0  0  0  0  0  0  0
   12.4690   -5.2624   19.9024 C   0  0  0  0  0  0  0  0  0  0  0  0
    3.2548   -9.9919   17.4189 C   0  0  0  0  0  0  0  0  0  0  0  0
   12.4767   -4.7393   22.1790 C   0  0  0  0  0  0  0  0  0  0  0  0
    7.8593   -5.3772   15.3569 N   0  0  0  0  0  0  0  0  0  0  0  0
    7.4412   -6.9038   16.9283 C   0  0  0  0  0  0  0  0  0  0  0  0
  1 21  4  0
  1 23  4  0
  2  5  1  0
  2 13  4  0
  2 16  4  0
  3  6  4  0
  3  7  4  0
  4 13  4  0
  4 19  4  0
  4 24  4  0
  6 23  4  0
  7 16  1  0
  7 21  4  0
  8 18  1  0
  9 20  4  0
  9 22  4  0
 10 17  1  0
 10 25  1  0
 11 16  4  0
 11 19  4  0
 12 15  4  0
 12 22  4  0
 14 24  4  0
 14 25  4  0
 15 17  4  0
 17 20  4  0
 18 23  1  0
 19 25  4  0
M  END
$$$$

 Created by Python create_sdf_string function

 25 28  0  0  0  0  0  0  0  0999 V2000
   13.1533   -5.2399   21.0682 C   0  0  0  0  0  0  0  0  0  0  0  0
   10.4729   -4.0295   17.6135 C   0  0  0  0  0  0  0  0  0  0  0  0
   10.4789   -4.3641   20.9564 C   0  0  0  0  0  0  0  0  0  0  0  0
    8.7421   -5.1412   16.3650 C   0  0  0  0  0  0  0  0  0  0  0  0
   11.4353   -2.9204   17.8044 C   0  0  0  0  0  0  0  0  0  0  0  0
   11.1529   -4.3028   22.1277 C   0  0  0  0  0  0  0  0  0  0  0  0
   11.1290   -4.8502   19.8052 C   0  0  0  0  0  0  0  0  0  0  0  0
   12.4329   -4.2159   24.4224 C   0  0  0  0  0  0  0  0  0  0  0  0
    3.4740   -9.0387   16.5022 C   0  0  0  0  0  0  0  0  0  0  0  0
    6.8384   -7.9290   17.5282 N   0  0  0  0  0  0  0  0  0  0  0  0
    9.4126   -5.9853   18.4899 C   0  0  0  0  0  0  0  0  0  0  0  0
    4.2064  -10.3242   18.3302 C   0  0  0  0  0  0  0  0  0  0  0  0
    9.6599   -4.1551   16.4796 N   0  0  0  0  0  0  0  0  0  0  0  0
    7.0644   -6.4612   15.7375 N   0  0  0  0  0  0  0  0  0  0  0  0
    5.3549   -9.6322   18.3190 C   0  0  0  0  0  0  0  0  0  0  0  0
   10.3704   -4.9638   18.6510 C   0  0  0  0  0  0  0  0  0  0  0  0
    5.5935   -8.6419   17.4234 C   0  0  0  0  0  0  0  0  0  0  0  0
   13.0726   -4.6648   23.3394 O   0  0  0  0  0  0  0  0  0  0  0  0
    8.5955   -6.0705   17.3996 C   0  0  0  0  0  0  0  0  0  0  0  0
    4.6223   -8.3832   16.5030 C   0  0  0  0  0  0  0  0  0  0  0  0
   12.4690   -5.2624   19.9024 C   0  0  0  0  0  0  0  0  0  0  0  0
    3.2548   -9.9919   17.4189 C   0  0  0  0  0  0  0  0  0  0  0  0
   12.4767   -4.7393   22.1790 C   0  0  0  0  0  0  0  0  0  0  0  0
    7.8593   -5.3772   15.3569 N   0  0  0  0  0  0  0  0  0  0  0  0
    7.4412   -6.9038   16.9283 C   0  0  0  0  0  0  0  0  0  0  0  0
  1 21  4  0
  1 23  4  0
  2  5  1  0
  2 13  4  0
  2 16  4  0
  3  6  4  0
  3  7  4  0
  4 13  4  0
  4 19  4  0
  4 24  4  0
  6 23  4  0
  7 16  1  0
  7 21  4  0
  8 18  1  0
  9 20  4  0
  9 22  4  0
 10 17  1  0
 10 25  1  0
 11 16  4  0
 11 19  4  0
 12 15  4  0
 12 22  4  0
 14 24  4  0
 14 25  4  0
 15 17  4  0
 17 20  4  0
 18 23  1  0
 19 25  4  0
M  END
$$$$

 Created by Python create_sdf_string function

 25 28  0  0  0  0  0  0  0  0999 V2000
   13.1533   -5.2399   21.0682 C   0  0  0  0  0  0  0  0  0  0  0  0
   10.4729   -4.0295   17.6135 C   0  0  0  0  0  0  0  0  0  0  0  0
   10.4789   -4.3641   20.9564 C   0  0  0  0  0  0  0  0  0  0  0  0
    8.7421   -5.1412   16.3650 C   0  0  0  0  0  0  0  0  0  0  0  0
   11.4353   -2.9204   17.8044 C   0  0  0  0  0  0  0  0  0  0  0  0
   11.1529   -4.3028   22.1277 C   0  0  0  0  0  0  0  0  0  0  0  0
   11.1290   -4.8502   19.8052 C   0  0  0  0  0  0  0  0  0  0  0  0
   12.4329   -4.2159   24.4224 C   0  0  0  0  0  0  0  0  0  0  0  0
    3.4740   -9.0387   16.5022 C   0  0  0  0  0  0  0  0  0  0  0  0
    6.8384   -7.9290   17.5282 N   0  0  0  0  0  0  0  0  0  0  0  0
    9.4126   -5.9853   18.4899 C   0  0  0  0  0  0  0  0  0  0  0  0
    4.2064  -10.3242   18.3302 C   0  0  0  0  0  0  0  0  0  0  0  0
    9.6599   -4.1551   16.4796 N   0  0  0  0  0  0  0  0  0  0  0  0
    7.0644   -6.4612   15.7375 N   0  0  0  0  0  0  0  0  0  0  0  0
    5.3549   -9.6322   18.3190 C   0  0  0  0  0  0  0  0  0  0  0  0
   10.3704   -4.9638   18.6510 C   0  0  0  0  0  0  0  0  0  0  0  0
    5.5935   -8.6419   17.4234 C   0  0  0  0  0  0  0  0  0  0  0  0
   13.0726   -4.6648   23.3394 O   0  0  0  0  0  0  0  0  0  0  0  0
    8.5955   -6.0705   17.3996 C   0  0  0  0  0  0  0  0  0  0  0  0
    4.6223   -8.3832   16.5030 C   0  0  0  0  0  0  0  0  0  0  0  0
   12.4690   -5.2624   19.9024 C   0  0  0  0  0  0  0  0  0  0  0  0
    3.2548   -9.9919   17.4189 C   0  0  0  0  0  0  0  0  0  0  0  0
   12.4767   -4.7393   22.1790 C   0  0  0  0  0  0  0  0  0  0  0  0
    7.8593   -5.3772   15.3569 N   0  0  0  0  0  0  0  0  0  0  0  0
    7.4412   -6.9038   16.9283 C   0  0  0  0  0  0  0  0  0  0  0  0
  1 21  4  0
  1 23  4  0
  2  5  1  0
  2 13  4  0
  2 16  4  0
  3  6  4  0
  3  7  4  0
  4 13  4  0
  4 19  4  0
  4 24  4  0
  6 23  4  0
  7 16  1  0
  7 21  4  0
  8 18  1  0
  9 20  4  0
  9 22  4  0
 10 17  1  0
 10 25  1  0
 11 16  4  0
 11 19  4  0
 12 15  4  0
 12 22  4  0
 14 24  4  0
 14 25  4  0
 15 17  4  0
 17 20  4  0
 18 23  1  0
 19 25  4  0
M  END
$$$$

 Created by Python create_sdf_string function

 25 28  0  0  0  0  0  0  0  0999 V2000
   13.1533   -5.2399   21.0682 C   0  0  0  0  0  0  0  0  0  0  0  0
   10.4729   -4.0295   17.6135 C   0  0  0  0  0  0  0  0  0  0  0  0
   10.4789   -4.3641   20.9564 C   0  0  0  0  0  0  0  0  0  0  0  0
    8.7421   -5.1412   16.3650 C   0  0  0  0  0  0  0  0  0  0  0  0
   11.4353   -2.9204   17.8044 C   0  0  0  0  0  0  0  0  0  0  0  0
   11.1529   -4.3028   22.1277 C   0  0  0  0  0  0  0  0  0  0  0  0
   11.1290   -4.8502   19.8052 C   0  0  0  0  0  0  0  0  0  0  0  0
   12.4329   -4.2159   24.4224 C   0  0  0  0  0  0  0  0  0  0  0  0
    3.4740   -9.0387   16.5022 C   0  0  0  0  0  0  0  0  0  0  0  0
    6.8384   -7.9290   17.5282 N   0  0  0  0  0  0  0  0  0  0  0  0
    9.4126   -5.9853   18.4899 C   0  0  0  0  0  0  0  0  0  0  0  0
    4.2064  -10.3242   18.3302 C   0  0  0  0  0  0  0  0  0  0  0  0
    9.6599   -4.1551   16.4796 N   0  0  0  0  0  0  0  0  0  0  0  0
    7.0644   -6.4612   15.7375 N   0  0  0  0  0  0  0  0  0  0  0  0
    5.3549   -9.6322   18.3190 C   0  0  0  0  0  0  0  0  0  0  0  0
   10.3704   -4.9638   18.6510 C   0  0  0  0  0  0  0  0  0  0  0  0
    5.5935   -8.6419   17.4234 C   0  0  0  0  0  0  0  0  0  0  0  0
   13.0726   -4.6648   23.3394 O   0  0  0  0  0  0  0  0  0  0  0  0
    8.5955   -6.0705   17.3996 C   0  0  0  0  0  0  0  0  0  0  0  0
    4.6223   -8.3832   16.5030 C   0  0  0  0  0  0  0  0  0  0  0  0
   12.4690   -5.2624   19.9024 C   0  0  0  0  0  0  0  0  0  0  0  0
    3.2548   -9.9919   17.4189 C   0  0  0  0  0  0  0  0  0  0  0  0
   12.4767   -4.7393   22.1790 C   0  0  0  0  0  0  0  0  0  0  0  0
    7.8593   -5.3772   15.3569 N   0  0  0  0  0  0  0  0  0  0  0  0
    7.4412   -6.9038   16.9283 C   0  0  0  0  0  0  0  0  0  0  0  0
  1 21  4  0
  1 23  4  0
  2  5  1  0
  2 13  4  0
  2 16  4  0
  3  6  4  0
  3  7  4  0
  4 13  4  0
  4 19  4  0
  4 24  4  0
  6 23  4  0
  7 16  1  0
  7 21  4  0
  8 18  1  0
  9 20  4  0
  9 22  4  0
 10 17  1  0
 10 25  1  0
 11 16  4  0
 11 19  4  0
 12 15  4  0
 12 22  4  0
 14 24  4  0
 14 25  4  0
 15 17  4  0
 17 20  4  0
 18 23  1  0
 19 25  4  0
M  END
$$$$

 Created by Python create_sdf_string function

 25 28  0  0  0  0  0  0  0  0999 V2000
   13.1533   -5.2399   21.0682 C   0  0  0  0  0  0  0  0  0  0  0  0
   10.4729   -4.0295   17.6135 C   0  0  0  0  0  0  0  0  0  0  0  0
   10.4789   -4.3641   20.9564 C   0  0  0  0  0  0  0  0  0  0  0  0
    8.7421   -5.1412   16.3650 C   0  0  0  0  0  0  0  0  0  0  0  0
   11.4353   -2.9204   17.8044 C   0  0  0  0  0  0  0  0  0  0  0  0
   11.1529   -4.3028   22.1277 C   0  0  0  0  0  0  0  0  0  0  0  0
   11.1290   -4.8502   19.8052 C   0  0  0  0  0  0  0  0  0  0  0  0
   12.4329   -4.2159   24.4224 C   0  0  0  0  0  0  0  0  0  0  0  0
    3.4740   -9.0387   16.5022 C   0  0  0  0  0  0  0  0  0  0  0  0
    6.8384   -7.9290   17.5282 N   0  0  0  0  0  0  0  0  0  0  0  0
    9.4126   -5.9853   18.4899 C   0  0  0  0  0  0  0  0  0  0  0  0
    4.2064  -10.3242   18.3302 C   0  0  0  0  0  0  0  0  0  0  0  0
    9.6599   -4.1551   16.4796 N   0  0  0  0  0  0  0  0  0  0  0  0
    7.0644   -6.4612   15.7375 N   0  0  0  0  0  0  0  0  0  0  0  0
    5.3549   -9.6322   18.3190 C   0  0  0  0  0  0  0  0  0  0  0  0
   10.3704   -4.9638   18.6510 C   0  0  0  0  0  0  0  0  0  0  0  0
    5.5935   -8.6419   17.4234 C   0  0  0  0  0  0  0  0  0  0  0  0
   13.0726   -4.6648   23.3394 O   0  0  0  0  0  0  0  0  0  0  0  0
    8.5955   -6.0705   17.3996 C   0  0  0  0  0  0  0  0  0  0  0  0
    4.6223   -8.3832   16.5030 C   0  0  0  0  0  0  0  0  0  0  0  0
   12.4690   -5.2624   19.9024 C   0  0  0  0  0  0  0  0  0  0  0  0
    3.2548   -9.9919   17.4189 C   0  0  0  0  0  0  0  0  0  0  0  0
   12.4767   -4.7393   22.1790 C   0  0  0  0  0  0  0  0  0  0  0  0
    7.8593   -5.3772   15.3569 N   0  0  0  0  0  0  0  0  0  0  0  0
    7.4412   -6.9038   16.9283 C   0  0  0  0  0  0  0  0  0  0  0  0
  1 21  4  0
  1 23  4  0
  2  5  1  0
  2 13  4  0
  2 16  4  0
  3  6  4  0
  3  7  4  0
  4 13  4  0
  4 19  4  0
  4 24  4  0
  6 23  4  0
  7 16  1  0
  7 21  4  0
  8 18  1  0
  9 20  4  0
  9 22  4  0
 10 17  1  0
 10 25  1  0
 11 16  4  0
 11 19  4  0
 12 15  4  0
 12 22  4  0
 14 24  4  0
 14 25  4  0
 15 17  4  0
 17 20  4  0
 18 23  1  0
 19 25  4  0
M  END
$$$$

 Created by Python create_sdf_string function

 25 28  0  0  0  0  0  0  0  0999 V2000
   13.1533   -5.2399   21.0682 C   0  0  0  0  0  0  0  0  0  0  0  0
   10.4729   -4.0295   17.6135 C   0  0  0  0  0  0  0  0  0  0  0  0
   10.4789   -4.3641   20.9564 C   0  0  0  0  0  0  0  0  0  0  0  0
    8.7421   -5.1412   16.3650 C   0  0  0  0  0  0  0  0  0  0  0  0
   11.4353   -2.9204   17.8044 C   0  0  0  0  0  0  0  0  0  0  0  0
   11.1529   -4.3028   22.1277 C   0  0  0  0  0  0  0  0  0  0  0  0
   11.1290   -4.8502   19.8052 C   0  0  0  0  0  0  0  0  0  0  0  0
   12.4329   -4.2159   24.4224 C   0  0  0  0  0  0  0  0  0  0  0  0
    3.4740   -9.0387   16.5022 C   0  0  0  0  0  0  0  0  0  0  0  0
    6.8384   -7.9290   17.5282 N   0  0  0  0  0  0  0  0  0  0  0  0
    9.4126   -5.9853   18.4899 C   0  0  0  0  0  0  0  0  0  0  0  0
    4.2064  -10.3242   18.3302 C   0  0  0  0  0  0  0  0  0  0  0  0
    9.6599   -4.1551   16.4796 N   0  0  0  0  0  0  0  0  0  0  0  0
    7.0644   -6.4612   15.7375 N   0  0  0  0  0  0  0  0  0  0  0  0
    5.3549   -9.6322   18.3190 C   0  0  0  0  0  0  0  0  0  0  0  0
   10.3704   -4.9638   18.6510 C   0  0  0  0  0  0  0  0  0  0  0  0
    5.5935   -8.6419   17.4234 C   0  0  0  0  0  0  0  0  0  0  0  0
   13.0726   -4.6648   23.3394 O   0  0  0  0  0  0  0  0  0  0  0  0
    8.5955   -6.0705   17.3996 C   0  0  0  0  0  0  0  0  0  0  0  0
    4.6223   -8.3832   16.5030 C   0  0  0  0  0  0  0  0  0  0  0  0
   12.4690   -5.2624   19.9024 C   0  0  0  0  0  0  0  0  0  0  0  0
    3.2548   -9.9919   17.4189 C   0  0  0  0  0  0  0  0  0  0  0  0
   12.4767   -4.7393   22.1790 C   0  0  0  0  0  0  0  0  0  0  0  0
    7.8593   -5.3772   15.3569 N   0  0  0  0  0  0  0  0  0  0  0  0
    7.4412   -6.9038   16.9283 C   0  0  0  0  0  0  0  0  0  0  0  0
  1 21  4  0
  1 23  4  0
  2  5  1  0
  2 13  4  0
  2 16  4  0
  3  6  4  0
  3  7  4  0
  4 13  4  0
  4 19  4  0
  4 24  4  0
  6 23  4  0
  7 16  1  0
  7 21  4  0
  8 18  1  0
  9 20  4  0
  9 22  4  0
 10 17  1  0
 10 25  1  0
 11 16  4  0
 11 19  4  0
 12 15  4  0
 12 22  4  0
 14 24  4  0
 14 25  4  0
 15 17  4  0
 17 20  4  0
 18 23  1  0
 19 25  4  0
M  END
$$$$

 Created by Python create_sdf_string function

 25 28  0  0  0  0  0  0  0  0999 V2000
   13.1533   -5.2399   21.0682 C   0  0  0  0  0  0  0  0  0  0  0  0
   10.4729   -4.0295   17.6135 C   0  0  0  0  0  0  0  0  0  0  0  0
   10.4789   -4.3641   20.9564 C   0  0  0  0  0  0  0  0  0  0  0  0
    8.7421   -5.1412   16.3650 C   0  0  0  0  0  0  0  0  0  0  0  0
   11.4353   -2.9204   17.8044 C   0  0  0  0  0  0  0  0  0  0  0  0
   11.1529   -4.3028   22.1277 C   0  0  0  0  0  0  0  0  0  0  0  0
   11.1290   -4.8502   19.8052 C   0  0  0  0  0  0  0  0  0  0  0  0
   12.4329   -4.2159   24.4224 C   0  0  0  0  0  0  0  0  0  0  0  0
    3.4740   -9.0387   16.5022 C   0  0  0  0  0  0  0  0  0  0  0  0
    6.8384   -7.9290   17.5282 N   0  0  0  0  0  0  0  0  0  0  0  0
    9.4126   -5.9853   18.4899 C   0  0  0  0  0  0  0  0  0  0  0  0
    4.2064  -10.3242   18.3302 C   0  0  0  0  0  0  0  0  0  0  0  0
    9.6599   -4.1551   16.4796 N   0  0  0  0  0  0  0  0  0  0  0  0
    7.0644   -6.4612   15.7375 N   0  0  0  0  0  0  0  0  0  0  0  0
    5.3549   -9.6322   18.3190 C   0  0  0  0  0  0  0  0  0  0  0  0
   10.3704   -4.9638   18.6510 C   0  0  0  0  0  0  0  0  0  0  0  0
    5.5935   -8.6419   17.4234 C   0  0  0  0  0  0  0  0  0  0  0  0
   13.0726   -4.6648   23.3394 O   0  0  0  0  0  0  0  0  0  0  0  0
    8.5955   -6.0705   17.3996 C   0  0  0  0  0  0  0  0  0  0  0  0
    4.6223   -8.3832   16.5030 C   0  0  0  0  0  0  0  0  0  0  0  0
   12.4690   -5.2624   19.9024 C   0  0  0  0  0  0  0  0  0  0  0  0
    3.2548   -9.9919   17.4189 C   0  0  0  0  0  0  0  0  0  0  0  0
   12.4767   -4.7393   22.1790 C   0  0  0  0  0  0  0  0  0  0  0  0
    7.8593   -5.3772   15.3569 N   0  0  0  0  0  0  0  0  0  0  0  0
    7.4412   -6.9038   16.9283 C   0  0  0  0  0  0  0  0  0  0  0  0
  1 21  4  0
  1 23  4  0
  2  5  1  0
  2 13  4  0
  2 16  4  0
  3  6  4  0
  3  7  4  0
  4 13  4  0
  4 19  4  0
  4 24  4  0
  6 23  4  0
  7 16  1  0
  7 21  4  0
  8 18  1  0
  9 20  4  0
  9 22  4  0
 10 17  1  0
 10 25  1  0
 11 16  4  0
 11 19  4  0
 12 15  4  0
 12 22  4  0
 14 24  4  0
 14 25  4  0
 15 17  4  0
 17 20  4  0
 18 23  1  0
 19 25  4  0
M  END
$$$$

 Created by Python create_sdf_string function

 25 28  0  0  0  0  0  0  0  0999 V2000
   13.1533   -5.2399   21.0682 C   0  0  0  0  0  0  0  0  0  0  0  0
   10.4729   -4.0295   17.6135 C   0  0  0  0  0  0  0  0  0  0  0  0
   10.4789   -4.3641   20.9564 C   0  0  0  0  0  0  0  0  0  0  0  0
    8.7421   -5.1412   16.3650 C   0  0  0  0  0  0  0  0  0  0  0  0
   11.4353   -2.9204   17.8044 C   0  0  0  0  0  0  0  0  0  0  0  0
   11.1529   -4.3028   22.1277 C   0  0  0  0  0  0  0  0  0  0  0  0
   11.1290   -4.8502   19.8052 C   0  0  0  0  0  0  0  0  0  0  0  0
   12.4329   -4.2159   24.4224 C   0  0  0  0  0  0  0  0  0  0  0  0
    3.4740   -9.0387   16.5022 C   0  0  0  0  0  0  0  0  0  0  0  0
    6.8384   -7.9290   17.5282 N   0  0  0  0  0  0  0  0  0  0  0  0
    9.4126   -5.9853   18.4899 C   0  0  0  0  0  0  0  0  0  0  0  0
    4.2064  -10.3242   18.3302 C   0  0  0  0  0  0  0  0  0  0  0  0
    9.6599   -4.1551   16.4796 N   0  0  0  0  0  0  0  0  0  0  0  0
    7.0644   -6.4612   15.7375 N   0  0  0  0  0  0  0  0  0  0  0  0
    5.3549   -9.6322   18.3190 C   0  0  0  0  0  0  0  0  0  0  0  0
   10.3704   -4.9638   18.6510 C   0  0  0  0  0  0  0  0  0  0  0  0
    5.5935   -8.6419   17.4234 C   0  0  0  0  0  0  0  0  0  0  0  0
   13.0726   -4.6648   23.3394 O   0  0  0  0  0  0  0  0  0  0  0  0
    8.5955   -6.0705   17.3996 C   0  0  0  0  0  0  0  0  0  0  0  0
    4.6223   -8.3832   16.5030 C   0  0  0  0  0  0  0  0  0  0  0  0
   12.4690   -5.2624   19.9024 C   0  0  0  0  0  0  0  0  0  0  0  0
    3.2548   -9.9919   17.4189 C   0  0  0  0  0  0  0  0  0  0  0  0
   12.4767   -4.7393   22.1790 C   0  0  0  0  0  0  0  0  0  0  0  0
    7.8593   -5.3772   15.3569 N   0  0  0  0  0  0  0  0  0  0  0  0
    7.4412   -6.9038   16.9283 C   0  0  0  0  0  0  0  0  0  0  0  0
  1 21  4  0
  1 23  4  0
  2  5  1  0
  2 13  4  0
  2 16  4  0
  3  6  4  0
  3  7  4  0
  4 13  4  0
  4 19  4  0
  4 24  4  0
  6 23  4  0
  7 16  1  0
  7 21  4  0
  8 18  1  0
  9 20  4  0
  9 22  4  0
 10 17  1  0
 10 25  1  0
 11 16  4  0
 11 19  4  0
 12 15  4  0
 12 22  4  0
 14 24  4  0
 14 25  4  0
 15 17  4  0
 17 20  4  0
 18 23  1  0
 19 25  4  0
M  END
$$$$

 Created by Python create_sdf_string function

 25 28  0  0  0  0  0  0  0  0999 V2000
   13.1533   -5.2399   21.0682 C   0  0  0  0  0  0  0  0  0  0  0  0
   10.4729   -4.0295   17.6135 C   0  0  0  0  0  0  0  0  0  0  0  0
   10.4789   -4.3641   20.9564 C   0  0  0  0  0  0  0  0  0  0  0  0
    8.7421   -5.1412   16.3650 C   0  0  0  0  0  0  0  0  0  0  0  0
   11.4353   -2.9204   17.8044 C   0  0  0  0  0  0  0  0  0  0  0  0
   11.1529   -4.3028   22.1277 C   0  0  0  0  0  0  0  0  0  0  0  0
   11.1290   -4.8502   19.8052 C   0  0  0  0  0  0  0  0  0  0  0  0
   12.4329   -4.2159   24.4224 C   0  0  0  0  0  0  0  0  0  0  0  0
    3.4740   -9.0387   16.5022 C   0  0  0  0  0  0  0  0  0  0  0  0
    6.8384   -7.9290   17.5282 N   0  0  0  0  0  0  0  0  0  0  0  0
    9.4126   -5.9853   18.4899 C   0  0  0  0  0  0  0  0  0  0  0  0
    4.2064  -10.3242   18.3302 C   0  0  0  0  0  0  0  0  0  0  0  0
    9.6599   -4.1551   16.4796 N   0  0  0  0  0  0  0  0  0  0  0  0
    7.0644   -6.4612   15.7375 N   0  0  0  0  0  0  0  0  0  0  0  0
    5.3549   -9.6322   18.3190 C   0  0  0  0  0  0  0  0  0  0  0  0
   10.3704   -4.9638   18.6510 C   0  0  0  0  0  0  0  0  0  0  0  0
    5.5935   -8.6419   17.4234 C   0  0  0  0  0  0  0  0  0  0  0  0
   13.0726   -4.6648   23.3394 O   0  0  0  0  0  0  0  0  0  0  0  0
    8.5955   -6.0705   17.3996 C   0  0  0  0  0  0  0  0  0  0  0  0
    4.6223   -8.3832   16.5030 C   0  0  0  0  0  0  0  0  0  0  0  0
   12.4690   -5.2624   19.9024 C   0  0  0  0  0  0  0  0  0  0  0  0
    3.2548   -9.9919   17.4189 C   0  0  0  0  0  0  0  0  0  0  0  0
   12.4767   -4.7393   22.1790 C   0  0  0  0  0  0  0  0  0  0  0  0
    7.8593   -5.3772   15.3569 N   0  0  0  0  0  0  0  0  0  0  0  0
    7.4412   -6.9038   16.9283 C   0  0  0  0  0  0  0  0  0  0  0  0
  1 21  4  0
  1 23  4  0
  2  5  1  0
  2 13  4  0
  2 16  4  0
  3  6  4  0
  3  7  4  0
  4 13  4  0
  4 19  4  0
  4 24  4  0
  6 23  4  0
  7 16  1  0
  7 21  4  0
  8 18  1  0
  9 20  4  0
  9 22  4  0
 10 17  1  0
 10 25  1  0
 11 16  4  0
 11 19  4  0
 12 15  4  0
 12 22  4  0
 14 24  4  0
 14 25  4  0
 15 17  4  0
 17 20  4  0
 18 23  1  0
 19 25  4  0
M  END
$$$$

 Created by Python create_sdf_string function

 25 28  0  0  0  0  0  0  0  0999 V2000
   13.1533   -5.2399   21.0682 C   0  0  0  0  0  0  0  0  0  0  0  0
   10.4729   -4.0295   17.6135 C   0  0  0  0  0  0  0  0  0  0  0  0
   10.4789   -4.3641   20.9564 C   0  0  0  0  0  0  0  0  0  0  0  0
    8.7421   -5.1412   16.3650 C   0  0  0  0  0  0  0  0  0  0  0  0
   11.4353   -2.9204   17.8044 C   0  0  0  0  0  0  0  0  0  0  0  0
   11.1529   -4.3028   22.1277 C   0  0  0  0  0  0  0  0  0  0  0  0
   11.1290   -4.8502   19.8052 C   0  0  0  0  0  0  0  0  0  0  0  0
   12.4329   -4.2159   24.4224 C   0  0  0  0  0  0  0  0  0  0  0  0
    3.4740   -9.0387   16.5022 C   0  0  0  0  0  0  0  0  0  0  0  0
    6.8384   -7.9290   17.5282 N   0  0  0  0  0  0  0  0  0  0  0  0
    9.4126   -5.9853   18.4899 C   0  0  0  0  0  0  0  0  0  0  0  0
    4.2064  -10.3242   18.3302 C   0  0  0  0  0  0  0  0  0  0  0  0
    9.6599   -4.1551   16.4796 N   0  0  0  0  0  0  0  0  0  0  0  0
    7.0644   -6.4612   15.7375 N   0  0  0  0  0  0  0  0  0  0  0  0
    5.3549   -9.6322   18.3190 C   0  0  0  0  0  0  0  0  0  0  0  0
   10.3704   -4.9638   18.6510 C   0  0  0  0  0  0  0  0  0  0  0  0
    5.5935   -8.6419   17.4234 C   0  0  0  0  0  0  0  0  0  0  0  0
   13.0726   -4.6648   23.3394 O   0  0  0  0  0  0  0  0  0  0  0  0
    8.5955   -6.0705   17.3996 C   0  0  0  0  0  0  0  0  0  0  0  0
    4.6223   -8.3832   16.5030 C   0  0  0  0  0  0  0  0  0  0  0  0
   12.4690   -5.2624   19.9024 C   0  0  0  0  0  0  0  0  0  0  0  0
    3.2548   -9.9919   17.4189 C   0  0  0  0  0  0  0  0  0  0  0  0
   12.4767   -4.7393   22.1790 C   0  0  0  0  0  0  0  0  0  0  0  0
    7.8593   -5.3772   15.3569 N   0  0  0  0  0  0  0  0  0  0  0  0
    7.4412   -6.9038   16.9283 C   0  0  0  0  0  0  0  0  0  0  0  0
  1 21  4  0
  1 23  4  0
  2  5  1  0
  2 13  4  0
  2 16  4  0
  3  6  4  0
  3  7  4  0
  4 13  4  0
  4 19  4  0
  4 24  4  0
  6 23  4  0
  7 16  1  0
  7 21  4  0
  8 18  1  0
  9 20  4  0
  9 22  4  0
 10 17  1  0
 10 25  1  0
 11 16  4  0
 11 19  4  0
 12 15  4  0
 12 22  4  0
 14 24  4  0
 14 25  4  0
 15 17  4  0
 17 20  4  0
 18 23  1  0
 19 25  4  0
M  END
$$$$

 Created by Python create_sdf_string function

 25 28  0  0  0  0  0  0  0  0999 V2000
   13.1533   -5.2399   21.0682 C   0  0  0  0  0  0  0  0  0  0  0  0
   10.4729   -4.0295   17.6135 C   0  0  0  0  0  0  0  0  0  0  0  0
   10.4789   -4.3641   20.9564 C   0  0  0  0  0  0  0  0  0  0  0  0
    8.7421   -5.1412   16.3650 C   0  0  0  0  0  0  0  0  0  0  0  0
   11.4353   -2.9204   17.8044 C   0  0  0  0  0  0  0  0  0  0  0  0
   11.1529   -4.3028   22.1277 C   0  0  0  0  0  0  0  0  0  0  0  0
   11.1290   -4.8502   19.8052 C   0  0  0  0  0  0  0  0  0  0  0  0
   12.4329   -4.2159   24.4224 C   0  0  0  0  0  0  0  0  0  0  0  0
    3.4740   -9.0387   16.5022 C   0  0  0  0  0  0  0  0  0  0  0  0
    6.8384   -7.9290   17.5282 N   0  0  0  0  0  0  0  0  0  0  0  0
    9.4126   -5.9853   18.4899 C   0  0  0  0  0  0  0  0  0  0  0  0
    4.2064  -10.3242   18.3302 C   0  0  0  0  0  0  0  0  0  0  0  0
    9.6599   -4.1551   16.4796 N   0  0  0  0  0  0  0  0  0  0  0  0
    7.0644   -6.4612   15.7375 N   0  0  0  0  0  0  0  0  0  0  0  0
    5.3549   -9.6322   18.3190 C   0  0  0  0  0  0  0  0  0  0  0  0
   10.3704   -4.9638   18.6510 C   0  0  0  0  0  0  0  0  0  0  0  0
    5.5935   -8.6419   17.4234 C   0  0  0  0  0  0  0  0  0  0  0  0
   13.0726   -4.6648   23.3394 O   0  0  0  0  0  0  0  0  0  0  0  0
    8.5955   -6.0705   17.3996 C   0  0  0  0  0  0  0  0  0  0  0  0
    4.6223   -8.3832   16.5030 C   0  0  0  0  0  0  0  0  0  0  0  0
   12.4690   -5.2624   19.9024 C   0  0  0  0  0  0  0  0  0  0  0  0
    3.2548   -9.9919   17.4189 C   0  0  0  0  0  0  0  0  0  0  0  0
   12.4767   -4.7393   22.1790 C   0  0  0  0  0  0  0  0  0  0  0  0
    7.8593   -5.3772   15.3569 N   0  0  0  0  0  0  0  0  0  0  0  0
    7.4412   -6.9038   16.9283 C   0  0  0  0  0  0  0  0  0  0  0  0
  1 21  4  0
  1 23  4  0
  2  5  1  0
  2 13  4  0
  2 16  4  0
  3  6  4  0
  3  7  4  0
  4 13  4  0
  4 19  4  0
  4 24  4  0
  6 23  4  0
  7 16  1  0
  7 21  4  0
  8 18  1  0
  9 20  4  0
  9 22  4  0
 10 17  1  0
 10 25  1  0
 11 16  4  0
 11 19  4  0
 12 15  4  0
 12 22  4  0
 14 24  4  0
 14 25  4  0
 15 17  4  0
 17 20  4  0
 18 23  1  0
 19 25  4  0
M  END
$$$$

 Created by Python create_sdf_string function

 25 28  0  0  0  0  0  0  0  0999 V2000
   13.1533   -5.2399   21.0682 C   0  0  0  0  0  0  0  0  0  0  0  0
   10.4729   -4.0295   17.6135 C   0  0  0  0  0  0  0  0  0  0  0  0
   10.4789   -4.3641   20.9564 C   0  0  0  0  0  0  0  0  0  0  0  0
    8.7421   -5.1412   16.3650 C   0  0  0  0  0  0  0  0  0  0  0  0
   11.4353   -2.9204   17.8044 C   0  0  0  0  0  0  0  0  0  0  0  0
   11.1529   -4.3028   22.1277 C   0  0  0  0  0  0  0  0  0  0  0  0
   11.1290   -4.8502   19.8052 C   0  0  0  0  0  0  0  0  0  0  0  0
   12.4329   -4.2159   24.4224 C   0  0  0  0  0  0  0  0  0  0  0  0
    3.4740   -9.0387   16.5022 C   0  0  0  0  0  0  0  0  0  0  0  0
    6.8384   -7.9290   17.5282 N   0  0  0  0  0  0  0  0  0  0  0  0
    9.4126   -5.9853   18.4899 C   0  0  0  0  0  0  0  0  0  0  0  0
    4.2064  -10.3242   18.3302 C   0  0  0  0  0  0  0  0  0  0  0  0
    9.6599   -4.1551   16.4796 N   0  0  0  0  0  0  0  0  0  0  0  0
    7.0644   -6.4612   15.7375 N   0  0  0  0  0  0  0  0  0  0  0  0
    5.3549   -9.6322   18.3190 C   0  0  0  0  0  0  0  0  0  0  0  0
   10.3704   -4.9638   18.6510 C   0  0  0  0  0  0  0  0  0  0  0  0
    5.5935   -8.6419   17.4234 C   0  0  0  0  0  0  0  0  0  0  0  0
   13.0726   -4.6648   23.3394 O   0  0  0  0  0  0  0  0  0  0  0  0
    8.5955   -6.0705   17.3996 C   0  0  0  0  0  0  0  0  0  0  0  0
    4.6223   -8.3832   16.5030 C   0  0  0  0  0  0  0  0  0  0  0  0
   12.4690   -5.2624   19.9024 C   0  0  0  0  0  0  0  0  0  0  0  0
    3.2548   -9.9919   17.4189 C   0  0  0  0  0  0  0  0  0  0  0  0
   12.4767   -4.7393   22.1790 C   0  0  0  0  0  0  0  0  0  0  0  0
    7.8593   -5.3772   15.3569 N   0  0  0  0  0  0  0  0  0  0  0  0
    7.4412   -6.9038   16.9283 C   0  0  0  0  0  0  0  0  0  0  0  0
  1 21  4  0
  1 23  4  0
  2  5  1  0
  2 13  4  0
  2 16  4  0
  3  6  4  0
  3  7  4  0
  4 13  4  0
  4 19  4  0
  4 24  4  0
  6 23  4  0
  7 16  1  0
  7 21  4  0
  8 18  1  0
  9 20  4  0
  9 22  4  0
 10 17  1  0
 10 25  1  0
 11 16  4  0
 11 19  4  0
 12 15  4  0
 12 22  4  0
 14 24  4  0
 14 25  4  0
 15 17  4  0
 17 20  4  0
 18 23  1  0
 19 25  4  0
M  END
$$$$

 Created by Python create_sdf_string function

 25 28  0  0  0  0  0  0  0  0999 V2000
   13.1533   -5.2399   21.0682 C   0  0  0  0  0  0  0  0  0  0  0  0
   10.4729   -4.0295   17.6135 C   0  0  0  0  0  0  0  0  0  0  0  0
   10.4789   -4.3641   20.9564 C   0  0  0  0  0  0  0  0  0  0  0  0
    8.7421   -5.1412   16.3650 C   0  0  0  0  0  0  0  0  0  0  0  0
   11.4353   -2.9204   17.8044 C   0  0  0  0  0  0  0  0  0  0  0  0
   11.1529   -4.3028   22.1277 C   0  0  0  0  0  0  0  0  0  0  0  0
   11.1290   -4.8502   19.8052 C   0  0  0  0  0  0  0  0  0  0  0  0
   12.4329   -4.2159   24.4224 C   0  0  0  0  0  0  0  0  0  0  0  0
    3.4740   -9.0387   16.5022 C   0  0  0  0  0  0  0  0  0  0  0  0
    6.8384   -7.9290   17.5282 N   0  0  0  0  0  0  0  0  0  0  0  0
    9.4126   -5.9853   18.4899 C   0  0  0  0  0  0  0  0  0  0  0  0
    4.2064  -10.3242   18.3302 C   0  0  0  0  0  0  0  0  0  0  0  0
    9.6599   -4.1551   16.4796 N   0  0  0  0  0  0  0  0  0  0  0  0
    7.0644   -6.4612   15.7375 N   0  0  0  0  0  0  0  0  0  0  0  0
    5.3549   -9.6322   18.3190 C   0  0  0  0  0  0  0  0  0  0  0  0
   10.3704   -4.9638   18.6510 C   0  0  0  0  0  0  0  0  0  0  0  0
    5.5935   -8.6419   17.4234 C   0  0  0  0  0  0  0  0  0  0  0  0
   13.0726   -4.6648   23.3394 O   0  0  0  0  0  0  0  0  0  0  0  0
    8.5955   -6.0705   17.3996 C   0  0  0  0  0  0  0  0  0  0  0  0
    4.6223   -8.3832   16.5030 C   0  0  0  0  0  0  0  0  0  0  0  0
   12.4690   -5.2624   19.9024 C   0  0  0  0  0  0  0  0  0  0  0  0
    3.2548   -9.9919   17.4189 C   0  0  0  0  0  0  0  0  0  0  0  0
   12.4767   -4.7393   22.1790 C   0  0  0  0  0  0  0  0  0  0  0  0
    7.8593   -5.3772   15.3569 N   0  0  0  0  0  0  0  0  0  0  0  0
    7.4412   -6.9038   16.9283 C   0  0  0  0  0  0  0  0  0  0  0  0
  1 21  4  0
  1 23  4  0
  2  5  1  0
  2 13  4  0
  2 16  4  0
  3  6  4  0
  3  7  4  0
  4 13  4  0
  4 19  4  0
  4 24  4  0
  6 23  4  0
  7 16  1  0
  7 21  4  0
  8 18  1  0
  9 20  4  0
  9 22  4  0
 10 17  1  0
 10 25  1  0
 11 16  4  0
 11 19  4  0
 12 15  4  0
 12 22  4  0
 14 24  4  0
 14 25  4  0
 15 17  4  0
 17 20  4  0
 18 23  1  0
 19 25  4  0
M  END
$$$$

 Created by Python create_sdf_string function

 25 28  0  0  0  0  0  0  0  0999 V2000
   13.1533   -5.2399   21.0682 C   0  0  0  0  0  0  0  0  0  0  0  0
   10.4729   -4.0295   17.6135 C   0  0  0  0  0  0  0  0  0  0  0  0
   10.4789   -4.3641   20.9564 C   0  0  0  0  0  0  0  0  0  0  0  0
    8.7421   -5.1412   16.3650 C   0  0  0  0  0  0  0  0  0  0  0  0
   11.4353   -2.9204   17.8044 C   0  0  0  0  0  0  0  0  0  0  0  0
   11.1529   -4.3028   22.1277 C   0  0  0  0  0  0  0  0  0  0  0  0
   11.1290   -4.8502   19.8052 C   0  0  0  0  0  0  0  0  0  0  0  0
   12.4329   -4.2159   24.4224 C   0  0  0  0  0  0  0  0  0  0  0  0
    3.4740   -9.0387   16.5022 C   0  0  0  0  0  0  0  0  0  0  0  0
    6.8384   -7.9290   17.5282 N   0  0  0  0  0  0  0  0  0  0  0  0
    9.4126   -5.9853   18.4899 C   0  0  0  0  0  0  0  0  0  0  0  0
    4.2064  -10.3242   18.3302 C   0  0  0  0  0  0  0  0  0  0  0  0
    9.6599   -4.1551   16.4796 N   0  0  0  0  0  0  0  0  0  0  0  0
    7.0644   -6.4612   15.7375 N   0  0  0  0  0  0  0  0  0  0  0  0
    5.3549   -9.6322   18.3190 C   0  0  0  0  0  0  0  0  0  0  0  0
   10.3704   -4.9638   18.6510 C   0  0  0  0  0  0  0  0  0  0  0  0
    5.5935   -8.6419   17.4234 C   0  0  0  0  0  0  0  0  0  0  0  0
   13.0726   -4.6648   23.3394 O   0  0  0  0  0  0  0  0  0  0  0  0
    8.5955   -6.0705   17.3996 C   0  0  0  0  0  0  0  0  0  0  0  0
    4.6223   -8.3832   16.5030 C   0  0  0  0  0  0  0  0  0  0  0  0
   12.4690   -5.2624   19.9024 C   0  0  0  0  0  0  0  0  0  0  0  0
    3.2548   -9.9919   17.4189 C   0  0  0  0  0  0  0  0  0  0  0  0
   12.4767   -4.7393   22.1790 C   0  0  0  0  0  0  0  0  0  0  0  0
    7.8593   -5.3772   15.3569 N   0  0  0  0  0  0  0  0  0  0  0  0
    7.4412   -6.9038   16.9283 C   0  0  0  0  0  0  0  0  0  0  0  0
  1 21  4  0
  1 23  4  0
  2  5  1  0
  2 13  4  0
  2 16  4  0
  3  6  4  0
  3  7  4  0
  4 13  4  0
  4 19  4  0
  4 24  4  0
  6 23  4  0
  7 16  1  0
  7 21  4  0
  8 18  1  0
  9 20  4  0
  9 22  4  0
 10 17  1  0
 10 25  1  0
 11 16  4  0
 11 19  4  0
 12 15  4  0
 12 22  4  0
 14 24  4  0
 14 25  4  0
 15 17  4  0
 17 20  4  0
 18 23  1  0
 19 25  4  0
M  END
$$$$

 Created by Python create_sdf_string function

 25 28  0  0  0  0  0  0  0  0999 V2000
   13.1533   -5.2399   21.0682 C   0  0  0  0  0  0  0  0  0  0  0  0
   10.4729   -4.0295   17.6135 C   0  0  0  0  0  0  0  0  0  0  0  0
   10.4789   -4.3641   20.9564 C   0  0  0  0  0  0  0  0  0  0  0  0
    8.7421   -5.1412   16.3650 C   0  0  0  0  0  0  0  0  0  0  0  0
   11.4353   -2.9204   17.8044 C   0  0  0  0  0  0  0  0  0  0  0  0
   11.1529   -4.3028   22.1277 C   0  0  0  0  0  0  0  0  0  0  0  0
   11.1290   -4.8502   19.8052 C   0  0  0  0  0  0  0  0  0  0  0  0
   12.4329   -4.2159   24.4224 C   0  0  0  0  0  0  0  0  0  0  0  0
    3.4740   -9.0387   16.5022 C   0  0  0  0  0  0  0  0  0  0  0  0
    6.8384   -7.9290   17.5282 N   0  0  0  0  0  0  0  0  0  0  0  0
    9.4126   -5.9853   18.4899 C   0  0  0  0  0  0  0  0  0  0  0  0
    4.2064  -10.3242   18.3302 C   0  0  0  0  0  0  0  0  0  0  0  0
    9.6599   -4.1551   16.4796 N   0  0  0  0  0  0  0  0  0  0  0  0
    7.0644   -6.4612   15.7375 N   0  0  0  0  0  0  0  0  0  0  0  0
    5.3549   -9.6322   18.3190 C   0  0  0  0  0  0  0  0  0  0  0  0
   10.3704   -4.9638   18.6510 C   0  0  0  0  0  0  0  0  0  0  0  0
    5.5935   -8.6419   17.4234 C   0  0  0  0  0  0  0  0  0  0  0  0
   13.0726   -4.6648   23.3394 O   0  0  0  0  0  0  0  0  0  0  0  0
    8.5955   -6.0705   17.3996 C   0  0  0  0  0  0  0  0  0  0  0  0
    4.6223   -8.3832   16.5030 C   0  0  0  0  0  0  0  0  0  0  0  0
   12.4690   -5.2624   19.9024 C   0  0  0  0  0  0  0  0  0  0  0  0
    3.2548   -9.9919   17.4189 C   0  0  0  0  0  0  0  0  0  0  0  0
   12.4767   -4.7393   22.1790 C   0  0  0  0  0  0  0  0  0  0  0  0
    7.8593   -5.3772   15.3569 N   0  0  0  0  0  0  0  0  0  0  0  0
    7.4412   -6.9038   16.9283 C   0  0  0  0  0  0  0  0  0  0  0  0
  1 21  4  0
  1 23  4  0
  2  5  1  0
  2 13  4  0
  2 16  4  0
  3  6  4  0
  3  7  4  0
  4 13  4  0
  4 19  4  0
  4 24  4  0
  6 23  4  0
  7 16  1  0
  7 21  4  0
  8 18  1  0
  9 20  4  0
  9 22  4  0
 10 17  1  0
 10 25  1  0
 11 16  4  0
 11 19  4  0
 12 15  4  0
 12 22  4  0
 14 24  4  0
 14 25  4  0
 15 17  4  0
 17 20  4  0
 18 23  1  0
 19 25  4  0
M  END
$$$$

 Created by Python create_sdf_string function

 25 28  0  0  0  0  0  0  0  0999 V2000
   13.1533   -5.2399   21.0682 C   0  0  0  0  0  0  0  0  0  0  0  0
   10.4729   -4.0295   17.6135 C   0  0  0  0  0  0  0  0  0  0  0  0
   10.4789   -4.3641   20.9564 C   0  0  0  0  0  0  0  0  0  0  0  0
    8.7421   -5.1412   16.3650 C   0  0  0  0  0  0  0  0  0  0  0  0
   11.4353   -2.9204   17.8044 C   0  0  0  0  0  0  0  0  0  0  0  0
   11.1529   -4.3028   22.1277 C   0  0  0  0  0  0  0  0  0  0  0  0
   11.1290   -4.8502   19.8052 C   0  0  0  0  0  0  0  0  0  0  0  0
   12.4329   -4.2159   24.4224 C   0  0  0  0  0  0  0  0  0  0  0  0
    3.4740   -9.0387   16.5022 C   0  0  0  0  0  0  0  0  0  0  0  0
    6.8384   -7.9290   17.5282 N   0  0  0  0  0  0  0  0  0  0  0  0
    9.4126   -5.9853   18.4899 C   0  0  0  0  0  0  0  0  0  0  0  0
    4.2064  -10.3242   18.3302 C   0  0  0  0  0  0  0  0  0  0  0  0
    9.6599   -4.1551   16.4796 N   0  0  0  0  0  0  0  0  0  0  0  0
    7.0644   -6.4612   15.7375 N   0  0  0  0  0  0  0  0  0  0  0  0
    5.3549   -9.6322   18.3190 C   0  0  0  0  0  0  0  0  0  0  0  0
   10.3704   -4.9638   18.6510 C   0  0  0  0  0  0  0  0  0  0  0  0
    5.5935   -8.6419   17.4234 C   0  0  0  0  0  0  0  0  0  0  0  0
   13.0726   -4.6648   23.3394 O   0  0  0  0  0  0  0  0  0  0  0  0
    8.5955   -6.0705   17.3996 C   0  0  0  0  0  0  0  0  0  0  0  0
    4.6223   -8.3832   16.5030 C   0  0  0  0  0  0  0  0  0  0  0  0
   12.4690   -5.2624   19.9024 C   0  0  0  0  0  0  0  0  0  0  0  0
    3.2548   -9.9919   17.4189 C   0  0  0  0  0  0  0  0  0  0  0  0
   12.4767   -4.7393   22.1790 C   0  0  0  0  0  0  0  0  0  0  0  0
    7.8593   -5.3772   15.3569 N   0  0  0  0  0  0  0  0  0  0  0  0
    7.4412   -6.9038   16.9283 C   0  0  0  0  0  0  0  0  0  0  0  0
  1 21  4  0
  1 23  4  0
  2  5  1  0
  2 13  4  0
  2 16  4  0
  3  6  4  0
  3  7  4  0
  4 13  4  0
  4 19  4  0
  4 24  4  0
  6 23  4  0
  7 16  1  0
  7 21  4  0
  8 18  1  0
  9 20  4  0
  9 22  4  0
 10 17  1  0
 10 25  1  0
 11 16  4  0
 11 19  4  0
 12 15  4  0
 12 22  4  0
 14 24  4  0
 14 25  4  0
 15 17  4  0
 17 20  4  0
 18 23  1  0
 19 25  4  0
M  END
$$$$

 Created by Python create_sdf_string function

 25 28  0  0  0  0  0  0  0  0999 V2000
   13.1533   -5.2399   21.0682 C   0  0  0  0  0  0  0  0  0  0  0  0
   10.4729   -4.0295   17.6135 C   0  0  0  0  0  0  0  0  0  0  0  0
   10.4789   -4.3641   20.9564 C   0  0  0  0  0  0  0  0  0  0  0  0
    8.7421   -5.1412   16.3650 C   0  0  0  0  0  0  0  0  0  0  0  0
   11.4353   -2.9204   17.8044 C   0  0  0  0  0  0  0  0  0  0  0  0
   11.1529   -4.3028   22.1277 C   0  0  0  0  0  0  0  0  0  0  0  0
   11.1290   -4.8502   19.8052 C   0  0  0  0  0  0  0  0  0  0  0  0
   12.4329   -4.2159   24.4224 C   0  0  0  0  0  0  0  0  0  0  0  0
    3.4740   -9.0387   16.5022 C   0  0  0  0  0  0  0  0  0  0  0  0
    6.8384   -7.9290   17.5282 N   0  0  0  0  0  0  0  0  0  0  0  0
    9.4126   -5.9853   18.4899 C   0  0  0  0  0  0  0  0  0  0  0  0
    4.2064  -10.3242   18.3302 C   0  0  0  0  0  0  0  0  0  0  0  0
    9.6599   -4.1551   16.4796 N   0  0  0  0  0  0  0  0  0  0  0  0
    7.0644   -6.4612   15.7375 N   0  0  0  0  0  0  0  0  0  0  0  0
    5.3549   -9.6322   18.3190 C   0  0  0  0  0  0  0  0  0  0  0  0
   10.3704   -4.9638   18.6510 C   0  0  0  0  0  0  0  0  0  0  0  0
    5.5935   -8.6419   17.4234 C   0  0  0  0  0  0  0  0  0  0  0  0
   13.0726   -4.6648   23.3394 O   0  0  0  0  0  0  0  0  0  0  0  0
    8.5955   -6.0705   17.3996 C   0  0  0  0  0  0  0  0  0  0  0  0
    4.6223   -8.3832   16.5030 C   0  0  0  0  0  0  0  0  0  0  0  0
   12.4690   -5.2624   19.9024 C   0  0  0  0  0  0  0  0  0  0  0  0
    3.2548   -9.9919   17.4189 C   0  0  0  0  0  0  0  0  0  0  0  0
   12.4767   -4.7393   22.1790 C   0  0  0  0  0  0  0  0  0  0  0  0
    7.8593   -5.3772   15.3569 N   0  0  0  0  0  0  0  0  0  0  0  0
    7.4412   -6.9038   16.9283 C   0  0  0  0  0  0  0  0  0  0  0  0
  1 21  4  0
  1 23  4  0
  2  5  1  0
  2 13  4  0
  2 16  4  0
  3  6  4  0
  3  7  4  0
  4 13  4  0
  4 19  4  0
  4 24  4  0
  6 23  4  0
  7 16  1  0
  7 21  4  0
  8 18  1  0
  9 20  4  0
  9 22  4  0
 10 17  1  0
 10 25  1  0
 11 16  4  0
 11 19  4  0
 12 15  4  0
 12 22  4  0
 14 24  4  0
 14 25  4  0
 15 17  4  0
 17 20  4  0
 18 23  1  0
 19 25  4  0
M  END
$$$$

 Created by Python create_sdf_string function

 25 28  0  0  0  0  0  0  0  0999 V2000
   13.1533   -5.2399   21.0682 C   0  0  0  0  0  0  0  0  0  0  0  0
   10.4729   -4.0295   17.6135 C   0  0  0  0  0  0  0  0  0  0  0  0
   10.4789   -4.3641   20.9564 C   0  0  0  0  0  0  0  0  0  0  0  0
    8.7421   -5.1412   16.3650 C   0  0  0  0  0  0  0  0  0  0  0  0
   11.4353   -2.9204   17.8044 C   0  0  0  0  0  0  0  0  0  0  0  0
   11.1529   -4.3028   22.1277 C   0  0  0  0  0  0  0  0  0  0  0  0
   11.1290   -4.8502   19.8052 C   0  0  0  0  0  0  0  0  0  0  0  0
   12.4329   -4.2159   24.4224 C   0  0  0  0  0  0  0  0  0  0  0  0
    3.4740   -9.0387   16.5022 C   0  0  0  0  0  0  0  0  0  0  0  0
    6.8384   -7.9290   17.5282 N   0  0  0  0  0  0  0  0  0  0  0  0
    9.4126   -5.9853   18.4899 C   0  0  0  0  0  0  0  0  0  0  0  0
    4.2064  -10.3242   18.3302 C   0  0  0  0  0  0  0  0  0  0  0  0
    9.6599   -4.1551   16.4796 N   0  0  0  0  0  0  0  0  0  0  0  0
    7.0644   -6.4612   15.7375 N   0  0  0  0  0  0  0  0  0  0  0  0
    5.3549   -9.6322   18.3190 C   0  0  0  0  0  0  0  0  0  0  0  0
   10.3704   -4.9638   18.6510 C   0  0  0  0  0  0  0  0  0  0  0  0
    5.5935   -8.6419   17.4234 C   0  0  0  0  0  0  0  0  0  0  0  0
   13.0726   -4.6648   23.3394 O   0  0  0  0  0  0  0  0  0  0  0  0
    8.5955   -6.0705   17.3996 C   0  0  0  0  0  0  0  0  0  0  0  0
    4.6223   -8.3832   16.5030 C   0  0  0  0  0  0  0  0  0  0  0  0
   12.4690   -5.2624   19.9024 C   0  0  0  0  0  0  0  0  0  0  0  0
    3.2548   -9.9919   17.4189 C   0  0  0  0  0  0  0  0  0  0  0  0
   12.4767   -4.7393   22.1790 C   0  0  0  0  0  0  0  0  0  0  0  0
    7.8593   -5.3772   15.3569 N   0  0  0  0  0  0  0  0  0  0  0  0
    7.4412   -6.9038   16.9283 C   0  0  0  0  0  0  0  0  0  0  0  0
  1 21  4  0
  1 23  4  0
  2  5  1  0
  2 13  4  0
  2 16  4  0
  3  6  4  0
  3  7  4  0
  4 13  4  0
  4 19  4  0
  4 24  4  0
  6 23  4  0
  7 16  1  0
  7 21  4  0
  8 18  1  0
  9 20  4  0
  9 22  4  0
 10 17  1  0
 10 25  1  0
 11 16  4  0
 11 19  4  0
 12 15  4  0
 12 22  4  0
 14 24  4  0
 14 25  4  0
 15 17  4  0
 17 20  4  0
 18 23  1  0
 19 25  4  0
M  END
$$$$

 Created by Python create_sdf_string function

 25 28  0  0  0  0  0  0  0  0999 V2000
   13.1533   -5.2399   21.0682 C   0  0  0  0  0  0  0  0  0  0  0  0
   10.4729   -4.0295   17.6135 C   0  0  0  0  0  0  0  0  0  0  0  0
   10.4789   -4.3641   20.9564 C   0  0  0  0  0  0  0  0  0  0  0  0
    8.7421   -5.1412   16.3650 C   0  0  0  0  0  0  0  0  0  0  0  0
   11.4353   -2.9204   17.8044 C   0  0  0  0  0  0  0  0  0  0  0  0
   11.1529   -4.3028   22.1277 C   0  0  0  0  0  0  0  0  0  0  0  0
   11.1290   -4.8502   19.8052 C   0  0  0  0  0  0  0  0  0  0  0  0
   12.4329   -4.2159   24.4224 C   0  0  0  0  0  0  0  0  0  0  0  0
    3.4740   -9.0387   16.5022 C   0  0  0  0  0  0  0  0  0  0  0  0
    6.8384   -7.9290   17.5282 N   0  0  0  0  0  0  0  0  0  0  0  0
    9.4126   -5.9853   18.4899 C   0  0  0  0  0  0  0  0  0  0  0  0
    4.2064  -10.3242   18.3302 C   0  0  0  0  0  0  0  0  0  0  0  0
    9.6599   -4.1551   16.4796 N   0  0  0  0  0  0  0  0  0  0  0  0
    7.0644   -6.4612   15.7375 N   0  0  0  0  0  0  0  0  0  0  0  0
    5.3549   -9.6322   18.3190 C   0  0  0  0  0  0  0  0  0  0  0  0
   10.3704   -4.9638   18.6510 C   0  0  0  0  0  0  0  0  0  0  0  0
    5.5935   -8.6419   17.4234 C   0  0  0  0  0  0  0  0  0  0  0  0
   13.0726   -4.6648   23.3394 O   0  0  0  0  0  0  0  0  0  0  0  0
    8.5955   -6.0705   17.3996 C   0  0  0  0  0  0  0  0  0  0  0  0
    4.6223   -8.3832   16.5030 C   0  0  0  0  0  0  0  0  0  0  0  0
   12.4690   -5.2624   19.9024 C   0  0  0  0  0  0  0  0  0  0  0  0
    3.2548   -9.9919   17.4189 C   0  0  0  0  0  0  0  0  0  0  0  0
   12.4767   -4.7393   22.1790 C   0  0  0  0  0  0  0  0  0  0  0  0
    7.8593   -5.3772   15.3569 N   0  0  0  0  0  0  0  0  0  0  0  0
    7.4412   -6.9038   16.9283 C   0  0  0  0  0  0  0  0  0  0  0  0
  1 21  4  0
  1 23  4  0
  2  5  1  0
  2 13  4  0
  2 16  4  0
  3  6  4  0
  3  7  4  0
  4 13  4  0
  4 19  4  0
  4 24  4  0
  6 23  4  0
  7 16  1  0
  7 21  4  0
  8 18  1  0
  9 20  4  0
  9 22  4  0
 10 17  1  0
 10 25  1  0
 11 16  4  0
 11 19  4  0
 12 15  4  0
 12 22  4  0
 14 24  4  0
 14 25  4  0
 15 17  4  0
 17 20  4  0
 18 23  1  0
 19 25  4  0
M  END
$$$$

 Created by Python create_sdf_string function

 25 28  0  0  0  0  0  0  0  0999 V2000
   13.1533   -5.2399   21.0682 C   0  0  0  0  0  0  0  0  0  0  0  0
   10.4729   -4.0295   17.6135 C   0  0  0  0  0  0  0  0  0  0  0  0
   10.4789   -4.3641   20.9564 C   0  0  0  0  0  0  0  0  0  0  0  0
    8.7421   -5.1412   16.3650 C   0  0  0  0  0  0  0  0  0  0  0  0
   11.4353   -2.9204   17.8044 C   0  0  0  0  0  0  0  0  0  0  0  0
   11.1529   -4.3028   22.1277 C   0  0  0  0  0  0  0  0  0  0  0  0
   11.1290   -4.8502   19.8052 C   0  0  0  0  0  0  0  0  0  0  0  0
   12.4329   -4.2159   24.4224 C   0  0  0  0  0  0  0  0  0  0  0  0
    3.4740   -9.0387   16.5022 C   0  0  0  0  0  0  0  0  0  0  0  0
    6.8384   -7.9290   17.5282 N   0  0  0  0  0  0  0  0  0  0  0  0
    9.4126   -5.9853   18.4899 C   0  0  0  0  0  0  0  0  0  0  0  0
    4.2064  -10.3242   18.3302 C   0  0  0  0  0  0  0  0  0  0  0  0
    9.6599   -4.1551   16.4796 N   0  0  0  0  0  0  0  0  0  0  0  0
    7.0644   -6.4612   15.7375 N   0  0  0  0  0  0  0  0  0  0  0  0
    5.3549   -9.6322   18.3190 C   0  0  0  0  0  0  0  0  0  0  0  0
   10.3704   -4.9638   18.6510 C   0  0  0  0  0  0  0  0  0  0  0  0
    5.5935   -8.6419   17.4234 C   0  0  0  0  0  0  0  0  0  0  0  0
   13.0726   -4.6648   23.3394 O   0  0  0  0  0  0  0  0  0  0  0  0
    8.5955   -6.0705   17.3996 C   0  0  0  0  0  0  0  0  0  0  0  0
    4.6223   -8.3832   16.5030 C   0  0  0  0  0  0  0  0  0  0  0  0
   12.4690   -5.2624   19.9024 C   0  0  0  0  0  0  0  0  0  0  0  0
    3.2548   -9.9919   17.4189 C   0  0  0  0  0  0  0  0  0  0  0  0
   12.4767   -4.7393   22.1790 C   0  0  0  0  0  0  0  0  0  0  0  0
    7.8593   -5.3772   15.3569 N   0  0  0  0  0  0  0  0  0  0  0  0
    7.4412   -6.9038   16.9283 C   0  0  0  0  0  0  0  0  0  0  0  0
  1 21  4  0
  1 23  4  0
  2  5  1  0
  2 13  4  0
  2 16  4  0
  3  6  4  0
  3  7  4  0
  4 13  4  0
  4 19  4  0
  4 24  4  0
  6 23  4  0
  7 16  1  0
  7 21  4  0
  8 18  1  0
  9 20  4  0
  9 22  4  0
 10 17  1  0
 10 25  1  0
 11 16  4  0
 11 19  4  0
 12 15  4  0
 12 22  4  0
 14 24  4  0
 14 25  4  0
 15 17  4  0
 17 20  4  0
 18 23  1  0
 19 25  4  0
M  END
$$$$

 Created by Python create_sdf_string function

 25 28  0  0  0  0  0  0  0  0999 V2000
   13.1533   -5.2399   21.0682 C   0  0  0  0  0  0  0  0  0  0  0  0
   10.4729   -4.0295   17.6135 C   0  0  0  0  0  0  0  0  0  0  0  0
   10.4789   -4.3641   20.9564 C   0  0  0  0  0  0  0  0  0  0  0  0
    8.7421   -5.1412   16.3650 C   0  0  0  0  0  0  0  0  0  0  0  0
   11.4353   -2.9204   17.8044 C   0  0  0  0  0  0  0  0  0  0  0  0
   11.1529   -4.3028   22.1277 C   0  0  0  0  0  0  0  0  0  0  0  0
   11.1290   -4.8502   19.8052 C   0  0  0  0  0  0  0  0  0  0  0  0
   12.4329   -4.2159   24.4224 C   0  0  0  0  0  0  0  0  0  0  0  0
    3.4740   -9.0387   16.5022 C   0  0  0  0  0  0  0  0  0  0  0  0
    6.8384   -7.9290   17.5282 N   0  0  0  0  0  0  0  0  0  0  0  0
    9.4126   -5.9853   18.4899 C   0  0  0  0  0  0  0  0  0  0  0  0
    4.2064  -10.3242   18.3302 C   0  0  0  0  0  0  0  0  0  0  0  0
    9.6599   -4.1551   16.4796 N   0  0  0  0  0  0  0  0  0  0  0  0
    7.0644   -6.4612   15.7375 N   0  0  0  0  0  0  0  0  0  0  0  0
    5.3549   -9.6322   18.3190 C   0  0  0  0  0  0  0  0  0  0  0  0
   10.3704   -4.9638   18.6510 C   0  0  0  0  0  0  0  0  0  0  0  0
    5.5935   -8.6419   17.4234 C   0  0  0  0  0  0  0  0  0  0  0  0
   13.0726   -4.6648   23.3394 O   0  0  0  0  0  0  0  0  0  0  0  0
    8.5955   -6.0705   17.3996 C   0  0  0  0  0  0  0  0  0  0  0  0
    4.6223   -8.3832   16.5030 C   0  0  0  0  0  0  0  0  0  0  0  0
   12.4690   -5.2624   19.9024 C   0  0  0  0  0  0  0  0  0  0  0  0
    3.2548   -9.9919   17.4189 C   0  0  0  0  0  0  0  0  0  0  0  0
   12.4767   -4.7393   22.1790 C   0  0  0  0  0  0  0  0  0  0  0  0
    7.8593   -5.3772   15.3569 N   0  0  0  0  0  0  0  0  0  0  0  0
    7.4412   -6.9038   16.9283 C   0  0  0  0  0  0  0  0  0  0  0  0
  1 21  4  0
  1 23  4  0
  2  5  1  0
  2 13  4  0
  2 16  4  0
  3  6  4  0
  3  7  4  0
  4 13  4  0
  4 19  4  0
  4 24  4  0
  6 23  4  0
  7 16  1  0
  7 21  4  0
  8 18  1  0
  9 20  4  0
  9 22  4  0
 10 17  1  0
 10 25  1  0
 11 16  4  0
 11 19  4  0
 12 15  4  0
 12 22  4  0
 14 24  4  0
 14 25  4  0
 15 17  4  0
 17 20  4  0
 18 23  1  0
 19 25  4  0
M  END
$$$$

 Created by Python create_sdf_string function

 25 28  0  0  0  0  0  0  0  0999 V2000
   13.1533   -5.2399   21.0682 C   0  0  0  0  0  0  0  0  0  0  0  0
   10.4729   -4.0295   17.6135 C   0  0  0  0  0  0  0  0  0  0  0  0
   10.4789   -4.3641   20.9564 C   0  0  0  0  0  0  0  0  0  0  0  0
    8.7421   -5.1412   16.3650 C   0  0  0  0  0  0  0  0  0  0  0  0
   11.4353   -2.9204   17.8044 C   0  0  0  0  0  0  0  0  0  0  0  0
   11.1529   -4.3028   22.1277 C   0  0  0  0  0  0  0  0  0  0  0  0
   11.1290   -4.8502   19.8052 C   0  0  0  0  0  0  0  0  0  0  0  0
   12.4329   -4.2159   24.4224 C   0  0  0  0  0  0  0  0  0  0  0  0
    3.4740   -9.0387   16.5022 C   0  0  0  0  0  0  0  0  0  0  0  0
    6.8384   -7.9290   17.5282 N   0  0  0  0  0  0  0  0  0  0  0  0
    9.4126   -5.9853   18.4899 C   0  0  0  0  0  0  0  0  0  0  0  0
    4.2064  -10.3242   18.3302 C   0  0  0  0  0  0  0  0  0  0  0  0
    9.6599   -4.1551   16.4796 N   0  0  0  0  0  0  0  0  0  0  0  0
    7.0644   -6.4612   15.7375 N   0  0  0  0  0  0  0  0  0  0  0  0
    5.3549   -9.6322   18.3190 C   0  0  0  0  0  0  0  0  0  0  0  0
   10.3704   -4.9638   18.6510 C   0  0  0  0  0  0  0  0  0  0  0  0
    5.5935   -8.6419   17.4234 C   0  0  0  0  0  0  0  0  0  0  0  0
   13.0726   -4.6648   23.3394 O   0  0  0  0  0  0  0  0  0  0  0  0
    8.5955   -6.0705   17.3996 C   0  0  0  0  0  0  0  0  0  0  0  0
    4.6223   -8.3832   16.5030 C   0  0  0  0  0  0  0  0  0  0  0  0
   12.4690   -5.2624   19.9024 C   0  0  0  0  0  0  0  0  0  0  0  0
    3.2548   -9.9919   17.4189 C   0  0  0  0  0  0  0  0  0  0  0  0
   12.4767   -4.7393   22.1790 C   0  0  0  0  0  0  0  0  0  0  0  0
    7.8593   -5.3772   15.3569 N   0  0  0  0  0  0  0  0  0  0  0  0
    7.4412   -6.9038   16.9283 C   0  0  0  0  0  0  0  0  0  0  0  0
  1 21  4  0
  1 23  4  0
  2  5  1  0
  2 13  4  0
  2 16  4  0
  3  6  4  0
  3  7  4  0
  4 13  4  0
  4 19  4  0
  4 24  4  0
  6 23  4  0
  7 16  1  0
  7 21  4  0
  8 18  1  0
  9 20  4  0
  9 22  4  0
 10 17  1  0
 10 25  1  0
 11 16  4  0
 11 19  4  0
 12 15  4  0
 12 22  4  0
 14 24  4  0
 14 25  4  0
 15 17  4  0
 17 20  4  0
 18 23  1  0
 19 25  4  0
M  END
$$$$

 Created by Python create_sdf_string function

 25 28  0  0  0  0  0  0  0  0999 V2000
   13.1533   -5.2399   21.0682 C   0  0  0  0  0  0  0  0  0  0  0  0
   10.4729   -4.0295   17.6135 C   0  0  0  0  0  0  0  0  0  0  0  0
   10.4789   -4.3641   20.9564 C   0  0  0  0  0  0  0  0  0  0  0  0
    8.7421   -5.1412   16.3650 C   0  0  0  0  0  0  0  0  0  0  0  0
   11.4353   -2.9204   17.8044 C   0  0  0  0  0  0  0  0  0  0  0  0
   11.1529   -4.3028   22.1277 C   0  0  0  0  0  0  0  0  0  0  0  0
   11.1290   -4.8502   19.8052 C   0  0  0  0  0  0  0  0  0  0  0  0
   12.4329   -4.2159   24.4224 C   0  0  0  0  0  0  0  0  0  0  0  0
    3.4740   -9.0387   16.5022 C   0  0  0  0  0  0  0  0  0  0  0  0
    6.8384   -7.9290   17.5282 N   0  0  0  0  0  0  0  0  0  0  0  0
    9.4126   -5.9853   18.4899 C   0  0  0  0  0  0  0  0  0  0  0  0
    4.2064  -10.3242   18.3302 C   0  0  0  0  0  0  0  0  0  0  0  0
    9.6599   -4.1551   16.4796 N   0  0  0  0  0  0  0  0  0  0  0  0
    7.0644   -6.4612   15.7375 N   0  0  0  0  0  0  0  0  0  0  0  0
    5.3549   -9.6322   18.3190 C   0  0  0  0  0  0  0  0  0  0  0  0
   10.3704   -4.9638   18.6510 C   0  0  0  0  0  0  0  0  0  0  0  0
    5.5935   -8.6419   17.4234 C   0  0  0  0  0  0  0  0  0  0  0  0
   13.0726   -4.6648   23.3394 O   0  0  0  0  0  0  0  0  0  0  0  0
    8.5955   -6.0705   17.3996 C   0  0  0  0  0  0  0  0  0  0  0  0
    4.6223   -8.3832   16.5030 C   0  0  0  0  0  0  0  0  0  0  0  0
   12.4690   -5.2624   19.9024 C   0  0  0  0  0  0  0  0  0  0  0  0
    3.2548   -9.9919   17.4189 C   0  0  0  0  0  0  0  0  0  0  0  0
   12.4767   -4.7393   22.1790 C   0  0  0  0  0  0  0  0  0  0  0  0
    7.8593   -5.3772   15.3569 N   0  0  0  0  0  0  0  0  0  0  0  0
    7.4412   -6.9038   16.9283 C   0  0  0  0  0  0  0  0  0  0  0  0
  1 21  4  0
  1 23  4  0
  2  5  1  0
  2 13  4  0
  2 16  4  0
  3  6  4  0
  3  7  4  0
  4 13  4  0
  4 19  4  0
  4 24  4  0
  6 23  4  0
  7 16  1  0
  7 21  4  0
  8 18  1  0
  9 20  4  0
  9 22  4  0
 10 17  1  0
 10 25  1  0
 11 16  4  0
 11 19  4  0
 12 15  4  0
 12 22  4  0
 14 24  4  0
 14 25  4  0
 15 17  4  0
 17 20  4  0
 18 23  1  0
 19 25  4  0
M  END
$$$$

 Created by Python create_sdf_string function

 25 28  0  0  0  0  0  0  0  0999 V2000
   13.1533   -5.2399   21.0682 C   0  0  0  0  0  0  0  0  0  0  0  0
   10.4729   -4.0295   17.6135 C   0  0  0  0  0  0  0  0  0  0  0  0
   10.4789   -4.3641   20.9564 C   0  0  0  0  0  0  0  0  0  0  0  0
    8.7421   -5.1412   16.3650 C   0  0  0  0  0  0  0  0  0  0  0  0
   11.4353   -2.9204   17.8044 C   0  0  0  0  0  0  0  0  0  0  0  0
   11.1529   -4.3028   22.1277 C   0  0  0  0  0  0  0  0  0  0  0  0
   11.1290   -4.8502   19.8052 C   0  0  0  0  0  0  0  0  0  0  0  0
   12.4329   -4.2159   24.4224 C   0  0  0  0  0  0  0  0  0  0  0  0
    3.4740   -9.0387   16.5022 C   0  0  0  0  0  0  0  0  0  0  0  0
    6.8384   -7.9290   17.5282 N   0  0  0  0  0  0  0  0  0  0  0  0
    9.4126   -5.9853   18.4899 C   0  0  0  0  0  0  0  0  0  0  0  0
    4.2064  -10.3242   18.3302 C   0  0  0  0  0  0  0  0  0  0  0  0
    9.6599   -4.1551   16.4796 N   0  0  0  0  0  0  0  0  0  0  0  0
    7.0644   -6.4612   15.7375 N   0  0  0  0  0  0  0  0  0  0  0  0
    5.3549   -9.6322   18.3190 C   0  0  0  0  0  0  0  0  0  0  0  0
   10.3704   -4.9638   18.6510 C   0  0  0  0  0  0  0  0  0  0  0  0
    5.5935   -8.6419   17.4234 C   0  0  0  0  0  0  0  0  0  0  0  0
   13.0726   -4.6648   23.3394 O   0  0  0  0  0  0  0  0  0  0  0  0
    8.5955   -6.0705   17.3996 C   0  0  0  0  0  0  0  0  0  0  0  0
    4.6223   -8.3832   16.5030 C   0  0  0  0  0  0  0  0  0  0  0  0
   12.4690   -5.2624   19.9024 C   0  0  0  0  0  0  0  0  0  0  0  0
    3.2548   -9.9919   17.4189 C   0  0  0  0  0  0  0  0  0  0  0  0
   12.4767   -4.7393   22.1790 C   0  0  0  0  0  0  0  0  0  0  0  0
    7.8593   -5.3772   15.3569 N   0  0  0  0  0  0  0  0  0  0  0  0
    7.4412   -6.9038   16.9283 C   0  0  0  0  0  0  0  0  0  0  0  0
  1 21  4  0
  1 23  4  0
  2  5  1  0
  2 13  4  0
  2 16  4  0
  3  6  4  0
  3  7  4  0
  4 13  4  0
  4 19  4  0
  4 24  4  0
  6 23  4  0
  7 16  1  0
  7 21  4  0
  8 18  1  0
  9 20  4  0
  9 22  4  0
 10 17  1  0
 10 25  1  0
 11 16  4  0
 11 19  4  0
 12 15  4  0
 12 22  4  0
 14 24  4  0
 14 25  4  0
 15 17  4  0
 17 20  4  0
 18 23  1  0
 19 25  4  0
M  END
$$$$

 Created by Python create_sdf_string function

 25 28  0  0  0  0  0  0  0  0999 V2000
   13.1533   -5.2399   21.0682 C   0  0  0  0  0  0  0  0  0  0  0  0
   10.4729   -4.0295   17.6135 C   0  0  0  0  0  0  0  0  0  0  0  0
   10.4789   -4.3641   20.9564 C   0  0  0  0  0  0  0  0  0  0  0  0
    8.7421   -5.1412   16.3650 C   0  0  0  0  0  0  0  0  0  0  0  0
   11.4353   -2.9204   17.8044 C   0  0  0  0  0  0  0  0  0  0  0  0
   11.1529   -4.3028   22.1277 C   0  0  0  0  0  0  0  0  0  0  0  0
   11.1290   -4.8502   19.8052 C   0  0  0  0  0  0  0  0  0  0  0  0
   12.4329   -4.2159   24.4224 C   0  0  0  0  0  0  0  0  0  0  0  0
    3.4740   -9.0387   16.5022 C   0  0  0  0  0  0  0  0  0  0  0  0
    6.8384   -7.9290   17.5282 N   0  0  0  0  0  0  0  0  0  0  0  0
    9.4126   -5.9853   18.4899 C   0  0  0  0  0  0  0  0  0  0  0  0
    4.2064  -10.3242   18.3302 C   0  0  0  0  0  0  0  0  0  0  0  0
    9.6599   -4.1551   16.4796 N   0  0  0  0  0  0  0  0  0  0  0  0
    7.0644   -6.4612   15.7375 N   0  0  0  0  0  0  0  0  0  0  0  0
    5.3549   -9.6322   18.3190 C   0  0  0  0  0  0  0  0  0  0  0  0
   10.3704   -4.9638   18.6510 C   0  0  0  0  0  0  0  0  0  0  0  0
    5.5935   -8.6419   17.4234 C   0  0  0  0  0  0  0  0  0  0  0  0
   13.0726   -4.6648   23.3394 O   0  0  0  0  0  0  0  0  0  0  0  0
    8.5955   -6.0705   17.3996 C   0  0  0  0  0  0  0  0  0  0  0  0
    4.6223   -8.3832   16.5030 C   0  0  0  0  0  0  0  0  0  0  0  0
   12.4690   -5.2624   19.9024 C   0  0  0  0  0  0  0  0  0  0  0  0
    3.2548   -9.9919   17.4189 C   0  0  0  0  0  0  0  0  0  0  0  0
   12.4767   -4.7393   22.1790 C   0  0  0  0  0  0  0  0  0  0  0  0
    7.8593   -5.3772   15.3569 N   0  0  0  0  0  0  0  0  0  0  0  0
    7.4412   -6.9038   16.9283 C   0  0  0  0  0  0  0  0  0  0  0  0
  1 21  4  0
  1 23  4  0
  2  5  1  0
  2 13  4  0
  2 16  4  0
  3  6  4  0
  3  7  4  0
  4 13  4  0
  4 19  4  0
  4 24  4  0
  6 23  4  0
  7 16  1  0
  7 21  4  0
  8 18  1  0
  9 20  4  0
  9 22  4  0
 10 17  1  0
 10 25  1  0
 11 16  4  0
 11 19  4  0
 12 15  4  0
 12 22  4  0
 14 24  4  0
 14 25  4  0
 15 17  4  0
 17 20  4  0
 18 23  1  0
 19 25  4  0
M  END
$$$$

 Created by Python create_sdf_string function

 25 28  0  0  0  0  0  0  0  0999 V2000
   13.1533   -5.2399   21.0682 C   0  0  0  0  0  0  0  0  0  0  0  0
   10.4729   -4.0295   17.6135 C   0  0  0  0  0  0  0  0  0  0  0  0
   10.4789   -4.3641   20.9564 C   0  0  0  0  0  0  0  0  0  0  0  0
    8.7421   -5.1412   16.3650 C   0  0  0  0  0  0  0  0  0  0  0  0
   11.4353   -2.9204   17.8044 C   0  0  0  0  0  0  0  0  0  0  0  0
   11.1529   -4.3028   22.1277 C   0  0  0  0  0  0  0  0  0  0  0  0
   11.1290   -4.8502   19.8052 C   0  0  0  0  0  0  0  0  0  0  0  0
   12.4329   -4.2159   24.4224 C   0  0  0  0  0  0  0  0  0  0  0  0
    3.4740   -9.0387   16.5022 C   0  0  0  0  0  0  0  0  0  0  0  0
    6.8384   -7.9290   17.5282 N   0  0  0  0  0  0  0  0  0  0  0  0
    9.4126   -5.9853   18.4899 C   0  0  0  0  0  0  0  0  0  0  0  0
    4.2064  -10.3242   18.3302 C   0  0  0  0  0  0  0  0  0  0  0  0
    9.6599   -4.1551   16.4796 N   0  0  0  0  0  0  0  0  0  0  0  0
    7.0644   -6.4612   15.7375 N   0  0  0  0  0  0  0  0  0  0  0  0
    5.3549   -9.6322   18.3190 C   0  0  0  0  0  0  0  0  0  0  0  0
   10.3704   -4.9638   18.6510 C   0  0  0  0  0  0  0  0  0  0  0  0
    5.5935   -8.6419   17.4234 C   0  0  0  0  0  0  0  0  0  0  0  0
   13.0726   -4.6648   23.3394 O   0  0  0  0  0  0  0  0  0  0  0  0
    8.5955   -6.0705   17.3996 C   0  0  0  0  0  0  0  0  0  0  0  0
    4.6223   -8.3832   16.5030 C   0  0  0  0  0  0  0  0  0  0  0  0
   12.4690   -5.2624   19.9024 C   0  0  0  0  0  0  0  0  0  0  0  0
    3.2548   -9.9919   17.4189 C   0  0  0  0  0  0  0  0  0  0  0  0
   12.4767   -4.7393   22.1790 C   0  0  0  0  0  0  0  0  0  0  0  0
    7.8593   -5.3772   15.3569 N   0  0  0  0  0  0  0  0  0  0  0  0
    7.4412   -6.9038   16.9283 C   0  0  0  0  0  0  0  0  0  0  0  0
  1 21  4  0
  1 23  4  0
  2  5  1  0
  2 13  4  0
  2 16  4  0
  3  6  4  0
  3  7  4  0
  4 13  4  0
  4 19  4  0
  4 24  4  0
  6 23  4  0
  7 16  1  0
  7 21  4  0
  8 18  1  0
  9 20  4  0
  9 22  4  0
 10 17  1  0
 10 25  1  0
 11 16  4  0
 11 19  4  0
 12 15  4  0
 12 22  4  0
 14 24  4  0
 14 25  4  0
 15 17  4  0
 17 20  4  0
 18 23  1  0
 19 25  4  0
M  END
$$$$

 Created by Python create_sdf_string function

 25 28  0  0  0  0  0  0  0  0999 V2000
   13.1533   -5.2399   21.0682 C   0  0  0  0  0  0  0  0  0  0  0  0
   10.4729   -4.0295   17.6135 C   0  0  0  0  0  0  0  0  0  0  0  0
   10.4789   -4.3641   20.9564 C   0  0  0  0  0  0  0  0  0  0  0  0
    8.7421   -5.1412   16.3650 C   0  0  0  0  0  0  0  0  0  0  0  0
   11.4353   -2.9204   17.8044 C   0  0  0  0  0  0  0  0  0  0  0  0
   11.1529   -4.3028   22.1277 C   0  0  0  0  0  0  0  0  0  0  0  0
   11.1290   -4.8502   19.8052 C   0  0  0  0  0  0  0  0  0  0  0  0
   12.4329   -4.2159   24.4224 C   0  0  0  0  0  0  0  0  0  0  0  0
    3.4740   -9.0387   16.5022 C   0  0  0  0  0  0  0  0  0  0  0  0
    6.8384   -7.9290   17.5282 N   0  0  0  0  0  0  0  0  0  0  0  0
    9.4126   -5.9853   18.4899 C   0  0  0  0  0  0  0  0  0  0  0  0
    4.2064  -10.3242   18.3302 C   0  0  0  0  0  0  0  0  0  0  0  0
    9.6599   -4.1551   16.4796 N   0  0  0  0  0  0  0  0  0  0  0  0
    7.0644   -6.4612   15.7375 N   0  0  0  0  0  0  0  0  0  0  0  0
    5.3549   -9.6322   18.3190 C   0  0  0  0  0  0  0  0  0  0  0  0
   10.3704   -4.9638   18.6510 C   0  0  0  0  0  0  0  0  0  0  0  0
    5.5935   -8.6419   17.4234 C   0  0  0  0  0  0  0  0  0  0  0  0
   13.0726   -4.6648   23.3394 O   0  0  0  0  0  0  0  0  0  0  0  0
    8.5955   -6.0705   17.3996 C   0  0  0  0  0  0  0  0  0  0  0  0
    4.6223   -8.3832   16.5030 C   0  0  0  0  0  0  0  0  0  0  0  0
   12.4690   -5.2624   19.9024 C   0  0  0  0  0  0  0  0  0  0  0  0
    3.2548   -9.9919   17.4189 C   0  0  0  0  0  0  0  0  0  0  0  0
   12.4767   -4.7393   22.1790 C   0  0  0  0  0  0  0  0  0  0  0  0
    7.8593   -5.3772   15.3569 N   0  0  0  0  0  0  0  0  0  0  0  0
    7.4412   -6.9038   16.9283 C   0  0  0  0  0  0  0  0  0  0  0  0
  1 21  4  0
  1 23  4  0
  2  5  1  0
  2 13  4  0
  2 16  4  0
  3  6  4  0
  3  7  4  0
  4 13  4  0
  4 19  4  0
  4 24  4  0
  6 23  4  0
  7 16  1  0
  7 21  4  0
  8 18  1  0
  9 20  4  0
  9 22  4  0
 10 17  1  0
 10 25  1  0
 11 16  4  0
 11 19  4  0
 12 15  4  0
 12 22  4  0
 14 24  4  0
 14 25  4  0
 15 17  4  0
 17 20  4  0
 18 23  1  0
 19 25  4  0
M  END
$$$$

 Created by Python create_sdf_string function

 25 28  0  0  0  0  0  0  0  0999 V2000
   13.1533   -5.2399   21.0682 C   0  0  0  0  0  0  0  0  0  0  0  0
   10.4729   -4.0295   17.6135 C   0  0  0  0  0  0  0  0  0  0  0  0
   10.4789   -4.3641   20.9564 C   0  0  0  0  0  0  0  0  0  0  0  0
    8.7421   -5.1412   16.3650 C   0  0  0  0  0  0  0  0  0  0  0  0
   11.4353   -2.9204   17.8044 C   0  0  0  0  0  0  0  0  0  0  0  0
   11.1529   -4.3028   22.1277 C   0  0  0  0  0  0  0  0  0  0  0  0
   11.1290   -4.8502   19.8052 C   0  0  0  0  0  0  0  0  0  0  0  0
   12.4329   -4.2159   24.4224 C   0  0  0  0  0  0  0  0  0  0  0  0
    3.4740   -9.0387   16.5022 C   0  0  0  0  0  0  0  0  0  0  0  0
    6.8384   -7.9290   17.5282 N   0  0  0  0  0  0  0  0  0  0  0  0
    9.4126   -5.9853   18.4899 C   0  0  0  0  0  0  0  0  0  0  0  0
    4.2064  -10.3242   18.3302 C   0  0  0  0  0  0  0  0  0  0  0  0
    9.6599   -4.1551   16.4796 N   0  0  0  0  0  0  0  0  0  0  0  0
    7.0644   -6.4612   15.7375 N   0  0  0  0  0  0  0  0  0  0  0  0
    5.3549   -9.6322   18.3190 C   0  0  0  0  0  0  0  0  0  0  0  0
   10.3704   -4.9638   18.6510 C   0  0  0  0  0  0  0  0  0  0  0  0
    5.5935   -8.6419   17.4234 C   0  0  0  0  0  0  0  0  0  0  0  0
   13.0726   -4.6648   23.3394 O   0  0  0  0  0  0  0  0  0  0  0  0
    8.5955   -6.0705   17.3996 C   0  0  0  0  0  0  0  0  0  0  0  0
    4.6223   -8.3832   16.5030 C   0  0  0  0  0  0  0  0  0  0  0  0
   12.4690   -5.2624   19.9024 C   0  0  0  0  0  0  0  0  0  0  0  0
    3.2548   -9.9919   17.4189 C   0  0  0  0  0  0  0  0  0  0  0  0
   12.4767   -4.7393   22.1790 C   0  0  0  0  0  0  0  0  0  0  0  0
    7.8593   -5.3772   15.3569 N   0  0  0  0  0  0  0  0  0  0  0  0
    7.4412   -6.9038   16.9283 C   0  0  0  0  0  0  0  0  0  0  0  0
  1 21  4  0
  1 23  4  0
  2  5  1  0
  2 13  4  0
  2 16  4  0
  3  6  4  0
  3  7  4  0
  4 13  4  0
  4 19  4  0
  4 24  4  0
  6 23  4  0
  7 16  1  0
  7 21  4  0
  8 18  1  0
  9 20  4  0
  9 22  4  0
 10 17  1  0
 10 25  1  0
 11 16  4  0
 11 19  4  0
 12 15  4  0
 12 22  4  0
 14 24  4  0
 14 25  4  0
 15 17  4  0
 17 20  4  0
 18 23  1  0
 19 25  4  0
M  END
$$$$

 Created by Python create_sdf_string function

 25 28  0  0  0  0  0  0  0  0999 V2000
   13.1533   -5.2399   21.0682 C   0  0  0  0  0  0  0  0  0  0  0  0
   10.4729   -4.0295   17.6135 C   0  0  0  0  0  0  0  0  0  0  0  0
   10.4789   -4.3641   20.9564 C   0  0  0  0  0  0  0  0  0  0  0  0
    8.7421   -5.1412   16.3650 C   0  0  0  0  0  0  0  0  0  0  0  0
   11.4353   -2.9204   17.8044 C   0  0  0  0  0  0  0  0  0  0  0  0
   11.1529   -4.3028   22.1277 C   0  0  0  0  0  0  0  0  0  0  0  0
   11.1290   -4.8502   19.8052 C   0  0  0  0  0  0  0  0  0  0  0  0
   12.4329   -4.2159   24.4224 C   0  0  0  0  0  0  0  0  0  0  0  0
    3.4740   -9.0387   16.5022 C   0  0  0  0  0  0  0  0  0  0  0  0
    6.8384   -7.9290   17.5282 N   0  0  0  0  0  0  0  0  0  0  0  0
    9.4126   -5.9853   18.4899 C   0  0  0  0  0  0  0  0  0  0  0  0
    4.2064  -10.3242   18.3302 C   0  0  0  0  0  0  0  0  0  0  0  0
    9.6599   -4.1551   16.4796 N   0  0  0  0  0  0  0  0  0  0  0  0
    7.0644   -6.4612   15.7375 N   0  0  0  0  0  0  0  0  0  0  0  0
    5.3549   -9.6322   18.3190 C   0  0  0  0  0  0  0  0  0  0  0  0
   10.3704   -4.9638   18.6510 C   0  0  0  0  0  0  0  0  0  0  0  0
    5.5935   -8.6419   17.4234 C   0  0  0  0  0  0  0  0  0  0  0  0
   13.0726   -4.6648   23.3394 O   0  0  0  0  0  0  0  0  0  0  0  0
    8.5955   -6.0705   17.3996 C   0  0  0  0  0  0  0  0  0  0  0  0
    4.6223   -8.3832   16.5030 C   0  0  0  0  0  0  0  0  0  0  0  0
   12.4690   -5.2624   19.9024 C   0  0  0  0  0  0  0  0  0  0  0  0
    3.2548   -9.9919   17.4189 C   0  0  0  0  0  0  0  0  0  0  0  0
   12.4767   -4.7393   22.1790 C   0  0  0  0  0  0  0  0  0  0  0  0
    7.8593   -5.3772   15.3569 N   0  0  0  0  0  0  0  0  0  0  0  0
    7.4412   -6.9038   16.9283 C   0  0  0  0  0  0  0  0  0  0  0  0
  1 21  4  0
  1 23  4  0
  2  5  1  0
  2 13  4  0
  2 16  4  0
  3  6  4  0
  3  7  4  0
  4 13  4  0
  4 19  4  0
  4 24  4  0
  6 23  4  0
  7 16  1  0
  7 21  4  0
  8 18  1  0
  9 20  4  0
  9 22  4  0
 10 17  1  0
 10 25  1  0
 11 16  4  0
 11 19  4  0
 12 15  4  0
 12 22  4  0
 14 24  4  0
 14 25  4  0
 15 17  4  0
 17 20  4  0
 18 23  1  0
 19 25  4  0
M  END
$$$$

 Created by Python create_sdf_string function

 25 28  0  0  0  0  0  0  0  0999 V2000
   13.1533   -5.2399   21.0682 C   0  0  0  0  0  0  0  0  0  0  0  0
   10.4729   -4.0295   17.6135 C   0  0  0  0  0  0  0  0  0  0  0  0
   10.4789   -4.3641   20.9564 C   0  0  0  0  0  0  0  0  0  0  0  0
    8.7421   -5.1412   16.3650 C   0  0  0  0  0  0  0  0  0  0  0  0
   11.4353   -2.9204   17.8044 C   0  0  0  0  0  0  0  0  0  0  0  0
   11.1529   -4.3028   22.1277 C   0  0  0  0  0  0  0  0  0  0  0  0
   11.1290   -4.8502   19.8052 C   0  0  0  0  0  0  0  0  0  0  0  0
   12.4329   -4.2159   24.4224 C   0  0  0  0  0  0  0  0  0  0  0  0
    3.4740   -9.0387   16.5022 C   0  0  0  0  0  0  0  0  0  0  0  0
    6.8384   -7.9290   17.5282 N   0  0  0  0  0  0  0  0  0  0  0  0
    9.4126   -5.9853   18.4899 C   0  0  0  0  0  0  0  0  0  0  0  0
    4.2064  -10.3242   18.3302 C   0  0  0  0  0  0  0  0  0  0  0  0
    9.6599   -4.1551   16.4796 N   0  0  0  0  0  0  0  0  0  0  0  0
    7.0644   -6.4612   15.7375 N   0  0  0  0  0  0  0  0  0  0  0  0
    5.3549   -9.6322   18.3190 C   0  0  0  0  0  0  0  0  0  0  0  0
   10.3704   -4.9638   18.6510 C   0  0  0  0  0  0  0  0  0  0  0  0
    5.5935   -8.6419   17.4234 C   0  0  0  0  0  0  0  0  0  0  0  0
   13.0726   -4.6648   23.3394 O   0  0  0  0  0  0  0  0  0  0  0  0
    8.5955   -6.0705   17.3996 C   0  0  0  0  0  0  0  0  0  0  0  0
    4.6223   -8.3832   16.5030 C   0  0  0  0  0  0  0  0  0  0  0  0
   12.4690   -5.2624   19.9024 C   0  0  0  0  0  0  0  0  0  0  0  0
    3.2548   -9.9919   17.4189 C   0  0  0  0  0  0  0  0  0  0  0  0
   12.4767   -4.7393   22.1790 C   0  0  0  0  0  0  0  0  0  0  0  0
    7.8593   -5.3772   15.3569 N   0  0  0  0  0  0  0  0  0  0  0  0
    7.4412   -6.9038   16.9283 C   0  0  0  0  0  0  0  0  0  0  0  0
  1 21  4  0
  1 23  4  0
  2  5  1  0
  2 13  4  0
  2 16  4  0
  3  6  4  0
  3  7  4  0
  4 13  4  0
  4 19  4  0
  4 24  4  0
  6 23  4  0
  7 16  1  0
  7 21  4  0
  8 18  1  0
  9 20  4  0
  9 22  4  0
 10 17  1  0
 10 25  1  0
 11 16  4  0
 11 19  4  0
 12 15  4  0
 12 22  4  0
 14 24  4  0
 14 25  4  0
 15 17  4  0
 17 20  4  0
 18 23  1  0
 19 25  4  0
M  END
$$$$

 Created by Python create_sdf_string function

 25 28  0  0  0  0  0  0  0  0999 V2000
   13.1533   -5.2399   21.0682 C   0  0  0  0  0  0  0  0  0  0  0  0
   10.4729   -4.0295   17.6135 C   0  0  0  0  0  0  0  0  0  0  0  0
   10.4789   -4.3641   20.9564 C   0  0  0  0  0  0  0  0  0  0  0  0
    8.7421   -5.1412   16.3650 C   0  0  0  0  0  0  0  0  0  0  0  0
   11.4353   -2.9204   17.8044 C   0  0  0  0  0  0  0  0  0  0  0  0
   11.1529   -4.3028   22.1277 C   0  0  0  0  0  0  0  0  0  0  0  0
   11.1290   -4.8502   19.8052 C   0  0  0  0  0  0  0  0  0  0  0  0
   12.4329   -4.2159   24.4224 C   0  0  0  0  0  0  0  0  0  0  0  0
    3.4740   -9.0387   16.5022 C   0  0  0  0  0  0  0  0  0  0  0  0
    6.8384   -7.9290   17.5282 N   0  0  0  0  0  0  0  0  0  0  0  0
    9.4126   -5.9853   18.4899 C   0  0  0  0  0  0  0  0  0  0  0  0
    4.2064  -10.3242   18.3302 C   0  0  0  0  0  0  0  0  0  0  0  0
    9.6599   -4.1551   16.4796 N   0  0  0  0  0  0  0  0  0  0  0  0
    7.0644   -6.4612   15.7375 N   0  0  0  0  0  0  0  0  0  0  0  0
    5.3549   -9.6322   18.3190 C   0  0  0  0  0  0  0  0  0  0  0  0
   10.3704   -4.9638   18.6510 C   0  0  0  0  0  0  0  0  0  0  0  0
    5.5935   -8.6419   17.4234 C   0  0  0  0  0  0  0  0  0  0  0  0
   13.0726   -4.6648   23.3394 O   0  0  0  0  0  0  0  0  0  0  0  0
    8.5955   -6.0705   17.3996 C   0  0  0  0  0  0  0  0  0  0  0  0
    4.6223   -8.3832   16.5030 C   0  0  0  0  0  0  0  0  0  0  0  0
   12.4690   -5.2624   19.9024 C   0  0  0  0  0  0  0  0  0  0  0  0
    3.2548   -9.9919   17.4189 C   0  0  0  0  0  0  0  0  0  0  0  0
   12.4767   -4.7393   22.1790 C   0  0  0  0  0  0  0  0  0  0  0  0
    7.8593   -5.3772   15.3569 N   0  0  0  0  0  0  0  0  0  0  0  0
    7.4412   -6.9038   16.9283 C   0  0  0  0  0  0  0  0  0  0  0  0
  1 21  4  0
  1 23  4  0
  2  5  1  0
  2 13  4  0
  2 16  4  0
  3  6  4  0
  3  7  4  0
  4 13  4  0
  4 19  4  0
  4 24  4  0
  6 23  4  0
  7 16  1  0
  7 21  4  0
  8 18  1  0
  9 20  4  0
  9 22  4  0
 10 17  1  0
 10 25  1  0
 11 16  4  0
 11 19  4  0
 12 15  4  0
 12 22  4  0
 14 24  4  0
 14 25  4  0
 15 17  4  0
 17 20  4  0
 18 23  1  0
 19 25  4  0
M  END
$$$$

 Created by Python create_sdf_string function

 25 28  0  0  0  0  0  0  0  0999 V2000
   13.1533   -5.2399   21.0682 C   0  0  0  0  0  0  0  0  0  0  0  0
   10.4729   -4.0295   17.6135 C   0  0  0  0  0  0  0  0  0  0  0  0
   10.4789   -4.3641   20.9564 C   0  0  0  0  0  0  0  0  0  0  0  0
    8.7421   -5.1412   16.3650 C   0  0  0  0  0  0  0  0  0  0  0  0
   11.4353   -2.9204   17.8044 C   0  0  0  0  0  0  0  0  0  0  0  0
   11.1529   -4.3028   22.1277 C   0  0  0  0  0  0  0  0  0  0  0  0
   11.1290   -4.8502   19.8052 C   0  0  0  0  0  0  0  0  0  0  0  0
   12.4329   -4.2159   24.4224 C   0  0  0  0  0  0  0  0  0  0  0  0
    3.4740   -9.0387   16.5022 C   0  0  0  0  0  0  0  0  0  0  0  0
    6.8384   -7.9290   17.5282 N   0  0  0  0  0  0  0  0  0  0  0  0
    9.4126   -5.9853   18.4899 C   0  0  0  0  0  0  0  0  0  0  0  0
    4.2064  -10.3242   18.3302 C   0  0  0  0  0  0  0  0  0  0  0  0
    9.6599   -4.1551   16.4796 N   0  0  0  0  0  0  0  0  0  0  0  0
    7.0644   -6.4612   15.7375 N   0  0  0  0  0  0  0  0  0  0  0  0
    5.3549   -9.6322   18.3190 C   0  0  0  0  0  0  0  0  0  0  0  0
   10.3704   -4.9638   18.6510 C   0  0  0  0  0  0  0  0  0  0  0  0
    5.5935   -8.6419   17.4234 C   0  0  0  0  0  0  0  0  0  0  0  0
   13.0726   -4.6648   23.3394 O   0  0  0  0  0  0  0  0  0  0  0  0
    8.5955   -6.0705   17.3996 C   0  0  0  0  0  0  0  0  0  0  0  0
    4.6223   -8.3832   16.5030 C   0  0  0  0  0  0  0  0  0  0  0  0
   12.4690   -5.2624   19.9024 C   0  0  0  0  0  0  0  0  0  0  0  0
    3.2548   -9.9919   17.4189 C   0  0  0  0  0  0  0  0  0  0  0  0
   12.4767   -4.7393   22.1790 C   0  0  0  0  0  0  0  0  0  0  0  0
    7.8593   -5.3772   15.3569 N   0  0  0  0  0  0  0  0  0  0  0  0
    7.4412   -6.9038   16.9283 C   0  0  0  0  0  0  0  0  0  0  0  0
  1 21  4  0
  1 23  4  0
  2  5  1  0
  2 13  4  0
  2 16  4  0
  3  6  4  0
  3  7  4  0
  4 13  4  0
  4 19  4  0
  4 24  4  0
  6 23  4  0
  7 16  1  0
  7 21  4  0
  8 18  1  0
  9 20  4  0
  9 22  4  0
 10 17  1  0
 10 25  1  0
 11 16  4  0
 11 19  4  0
 12 15  4  0
 12 22  4  0
 14 24  4  0
 14 25  4  0
 15 17  4  0
 17 20  4  0
 18 23  1  0
 19 25  4  0
M  END
$$$$

 Created by Python create_sdf_string function

 25 28  0  0  0  0  0  0  0  0999 V2000
   13.1533   -5.2399   21.0682 C   0  0  0  0  0  0  0  0  0  0  0  0
   10.4729   -4.0295   17.6135 C   0  0  0  0  0  0  0  0  0  0  0  0
   10.4789   -4.3641   20.9564 C   0  0  0  0  0  0  0  0  0  0  0  0
    8.7421   -5.1412   16.3650 C   0  0  0  0  0  0  0  0  0  0  0  0
   11.4353   -2.9204   17.8044 C   0  0  0  0  0  0  0  0  0  0  0  0
   11.1529   -4.3028   22.1277 C   0  0  0  0  0  0  0  0  0  0  0  0
   11.1290   -4.8502   19.8052 C   0  0  0  0  0  0  0  0  0  0  0  0
   12.4329   -4.2159   24.4224 C   0  0  0  0  0  0  0  0  0  0  0  0
    3.4740   -9.0387   16.5022 C   0  0  0  0  0  0  0  0  0  0  0  0
    6.8384   -7.9290   17.5282 N   0  0  0  0  0  0  0  0  0  0  0  0
    9.4126   -5.9853   18.4899 C   0  0  0  0  0  0  0  0  0  0  0  0
    4.2064  -10.3242   18.3302 C   0  0  0  0  0  0  0  0  0  0  0  0
    9.6599   -4.1551   16.4796 N   0  0  0  0  0  0  0  0  0  0  0  0
    7.0644   -6.4612   15.7375 N   0  0  0  0  0  0  0  0  0  0  0  0
    5.3549   -9.6322   18.3190 C   0  0  0  0  0  0  0  0  0  0  0  0
   10.3704   -4.9638   18.6510 C   0  0  0  0  0  0  0  0  0  0  0  0
    5.5935   -8.6419   17.4234 C   0  0  0  0  0  0  0  0  0  0  0  0
   13.0726   -4.6648   23.3394 O   0  0  0  0  0  0  0  0  0  0  0  0
    8.5955   -6.0705   17.3996 C   0  0  0  0  0  0  0  0  0  0  0  0
    4.6223   -8.3832   16.5030 C   0  0  0  0  0  0  0  0  0  0  0  0
   12.4690   -5.2624   19.9024 C   0  0  0  0  0  0  0  0  0  0  0  0
    3.2548   -9.9919   17.4189 C   0  0  0  0  0  0  0  0  0  0  0  0
   12.4767   -4.7393   22.1790 C   0  0  0  0  0  0  0  0  0  0  0  0
    7.8593   -5.3772   15.3569 N   0  0  0  0  0  0  0  0  0  0  0  0
    7.4412   -6.9038   16.9283 C   0  0  0  0  0  0  0  0  0  0  0  0
  1 21  4  0
  1 23  4  0
  2  5  1  0
  2 13  4  0
  2 16  4  0
  3  6  4  0
  3  7  4  0
  4 13  4  0
  4 19  4  0
  4 24  4  0
  6 23  4  0
  7 16  1  0
  7 21  4  0
  8 18  1  0
  9 20  4  0
  9 22  4  0
 10 17  1  0
 10 25  1  0
 11 16  4  0
 11 19  4  0
 12 15  4  0
 12 22  4  0
 14 24  4  0
 14 25  4  0
 15 17  4  0
 17 20  4  0
 18 23  1  0
 19 25  4  0
M  END
$$$$

 Created by Python create_sdf_string function

 25 28  0  0  0  0  0  0  0  0999 V2000
   13.1533   -5.2399   21.0682 C   0  0  0  0  0  0  0  0  0  0  0  0
   10.4729   -4.0295   17.6135 C   0  0  0  0  0  0  0  0  0  0  0  0
   10.4789   -4.3641   20.9564 C   0  0  0  0  0  0  0  0  0  0  0  0
    8.7421   -5.1412   16.3650 C   0  0  0  0  0  0  0  0  0  0  0  0
   11.4353   -2.9204   17.8044 C   0  0  0  0  0  0  0  0  0  0  0  0
   11.1529   -4.3028   22.1277 C   0  0  0  0  0  0  0  0  0  0  0  0
   11.1290   -4.8502   19.8052 C   0  0  0  0  0  0  0  0  0  0  0  0
   12.4329   -4.2159   24.4224 C   0  0  0  0  0  0  0  0  0  0  0  0
    3.4740   -9.0387   16.5022 C   0  0  0  0  0  0  0  0  0  0  0  0
    6.8384   -7.9290   17.5282 N   0  0  0  0  0  0  0  0  0  0  0  0
    9.4126   -5.9853   18.4899 C   0  0  0  0  0  0  0  0  0  0  0  0
    4.2064  -10.3242   18.3302 C   0  0  0  0  0  0  0  0  0  0  0  0
    9.6599   -4.1551   16.4796 N   0  0  0  0  0  0  0  0  0  0  0  0
    7.0644   -6.4612   15.7375 N   0  0  0  0  0  0  0  0  0  0  0  0
    5.3549   -9.6322   18.3190 C   0  0  0  0  0  0  0  0  0  0  0  0
   10.3704   -4.9638   18.6510 C   0  0  0  0  0  0  0  0  0  0  0  0
    5.5935   -8.6419   17.4234 C   0  0  0  0  0  0  0  0  0  0  0  0
   13.0726   -4.6648   23.3394 O   0  0  0  0  0  0  0  0  0  0  0  0
    8.5955   -6.0705   17.3996 C   0  0  0  0  0  0  0  0  0  0  0  0
    4.6223   -8.3832   16.5030 C   0  0  0  0  0  0  0  0  0  0  0  0
   12.4690   -5.2624   19.9024 C   0  0  0  0  0  0  0  0  0  0  0  0
    3.2548   -9.9919   17.4189 C   0  0  0  0  0  0  0  0  0  0  0  0
   12.4767   -4.7393   22.1790 C   0  0  0  0  0  0  0  0  0  0  0  0
    7.8593   -5.3772   15.3569 N   0  0  0  0  0  0  0  0  0  0  0  0
    7.4412   -6.9038   16.9283 C   0  0  0  0  0  0  0  0  0  0  0  0
  1 21  4  0
  1 23  4  0
  2  5  1  0
  2 13  4  0
  2 16  4  0
  3  6  4  0
  3  7  4  0
  4 13  4  0
  4 19  4  0
  4 24  4  0
  6 23  4  0
  7 16  1  0
  7 21  4  0
  8 18  1  0
  9 20  4  0
  9 22  4  0
 10 17  1  0
 10 25  1  0
 11 16  4  0
 11 19  4  0
 12 15  4  0
 12 22  4  0
 14 24  4  0
 14 25  4  0
 15 17  4  0
 17 20  4  0
 18 23  1  0
 19 25  4  0
M  END
$$$$

 Created by Python create_sdf_string function

 25 28  0  0  0  0  0  0  0  0999 V2000
   13.1533   -5.2399   21.0682 C   0  0  0  0  0  0  0  0  0  0  0  0
   10.4729   -4.0295   17.6135 C   0  0  0  0  0  0  0  0  0  0  0  0
   10.4789   -4.3641   20.9564 C   0  0  0  0  0  0  0  0  0  0  0  0
    8.7421   -5.1412   16.3650 C   0  0  0  0  0  0  0  0  0  0  0  0
   11.4353   -2.9204   17.8044 C   0  0  0  0  0  0  0  0  0  0  0  0
   11.1529   -4.3028   22.1277 C   0  0  0  0  0  0  0  0  0  0  0  0
   11.1290   -4.8502   19.8052 C   0  0  0  0  0  0  0  0  0  0  0  0
   12.4329   -4.2159   24.4224 C   0  0  0  0  0  0  0  0  0  0  0  0
    3.4740   -9.0387   16.5022 C   0  0  0  0  0  0  0  0  0  0  0  0
    6.8384   -7.9290   17.5282 N   0  0  0  0  0  0  0  0  0  0  0  0
    9.4126   -5.9853   18.4899 C   0  0  0  0  0  0  0  0  0  0  0  0
    4.2064  -10.3242   18.3302 C   0  0  0  0  0  0  0  0  0  0  0  0
    9.6599   -4.1551   16.4796 N   0  0  0  0  0  0  0  0  0  0  0  0
    7.0644   -6.4612   15.7375 N   0  0  0  0  0  0  0  0  0  0  0  0
    5.3549   -9.6322   18.3190 C   0  0  0  0  0  0  0  0  0  0  0  0
   10.3704   -4.9638   18.6510 C   0  0  0  0  0  0  0  0  0  0  0  0
    5.5935   -8.6419   17.4234 C   0  0  0  0  0  0  0  0  0  0  0  0
   13.0726   -4.6648   23.3394 O   0  0  0  0  0  0  0  0  0  0  0  0
    8.5955   -6.0705   17.3996 C   0  0  0  0  0  0  0  0  0  0  0  0
    4.6223   -8.3832   16.5030 C   0  0  0  0  0  0  0  0  0  0  0  0
   12.4690   -5.2624   19.9024 C   0  0  0  0  0  0  0  0  0  0  0  0
    3.2548   -9.9919   17.4189 C   0  0  0  0  0  0  0  0  0  0  0  0
   12.4767   -4.7393   22.1790 C   0  0  0  0  0  0  0  0  0  0  0  0
    7.8593   -5.3772   15.3569 N   0  0  0  0  0  0  0  0  0  0  0  0
    7.4412   -6.9038   16.9283 C   0  0  0  0  0  0  0  0  0  0  0  0
  1 21  4  0
  1 23  4  0
  2  5  1  0
  2 13  4  0
  2 16  4  0
  3  6  4  0
  3  7  4  0
  4 13  4  0
  4 19  4  0
  4 24  4  0
  6 23  4  0
  7 16  1  0
  7 21  4  0
  8 18  1  0
  9 20  4  0
  9 22  4  0
 10 17  1  0
 10 25  1  0
 11 16  4  0
 11 19  4  0
 12 15  4  0
 12 22  4  0
 14 24  4  0
 14 25  4  0
 15 17  4  0
 17 20  4  0
 18 23  1  0
 19 25  4  0
M  END
$$$$

 Created by Python create_sdf_string function

 25 28  0  0  0  0  0  0  0  0999 V2000
   13.1533   -5.2399   21.0682 C   0  0  0  0  0  0  0  0  0  0  0  0
   10.4729   -4.0295   17.6135 C   0  0  0  0  0  0  0  0  0  0  0  0
   10.4789   -4.3641   20.9564 C   0  0  0  0  0  0  0  0  0  0  0  0
    8.7421   -5.1412   16.3650 C   0  0  0  0  0  0  0  0  0  0  0  0
   11.4353   -2.9204   17.8044 C   0  0  0  0  0  0  0  0  0  0  0  0
   11.1529   -4.3028   22.1277 C   0  0  0  0  0  0  0  0  0  0  0  0
   11.1290   -4.8502   19.8052 C   0  0  0  0  0  0  0  0  0  0  0  0
   12.4329   -4.2159   24.4224 C   0  0  0  0  0  0  0  0  0  0  0  0
    3.4740   -9.0387   16.5022 C   0  0  0  0  0  0  0  0  0  0  0  0
    6.8384   -7.9290   17.5282 N   0  0  0  0  0  0  0  0  0  0  0  0
    9.4126   -5.9853   18.4899 C   0  0  0  0  0  0  0  0  0  0  0  0
    4.2064  -10.3242   18.3302 C   0  0  0  0  0  0  0  0  0  0  0  0
    9.6599   -4.1551   16.4796 N   0  0  0  0  0  0  0  0  0  0  0  0
    7.0644   -6.4612   15.7375 N   0  0  0  0  0  0  0  0  0  0  0  0
    5.3549   -9.6322   18.3190 C   0  0  0  0  0  0  0  0  0  0  0  0
   10.3704   -4.9638   18.6510 C   0  0  0  0  0  0  0  0  0  0  0  0
    5.5935   -8.6419   17.4234 C   0  0  0  0  0  0  0  0  0  0  0  0
   13.0726   -4.6648   23.3394 O   0  0  0  0  0  0  0  0  0  0  0  0
    8.5955   -6.0705   17.3996 C   0  0  0  0  0  0  0  0  0  0  0  0
    4.6223   -8.3832   16.5030 C   0  0  0  0  0  0  0  0  0  0  0  0
   12.4690   -5.2624   19.9024 C   0  0  0  0  0  0  0  0  0  0  0  0
    3.2548   -9.9919   17.4189 C   0  0  0  0  0  0  0  0  0  0  0  0
   12.4767   -4.7393   22.1790 C   0  0  0  0  0  0  0  0  0  0  0  0
    7.8593   -5.3772   15.3569 N   0  0  0  0  0  0  0  0  0  0  0  0
    7.4412   -6.9038   16.9283 C   0  0  0  0  0  0  0  0  0  0  0  0
  1 21  4  0
  1 23  4  0
  2  5  1  0
  2 13  4  0
  2 16  4  0
  3  6  4  0
  3  7  4  0
  4 13  4  0
  4 19  4  0
  4 24  4  0
  6 23  4  0
  7 16  1  0
  7 21  4  0
  8 18  1  0
  9 20  4  0
  9 22  4  0
 10 17  1  0
 10 25  1  0
 11 16  4  0
 11 19  4  0
 12 15  4  0
 12 22  4  0
 14 24  4  0
 14 25  4  0
 15 17  4  0
 17 20  4  0
 18 23  1  0
 19 25  4  0
M  END
$$$$

 Created by Python create_sdf_string function

 25 28  0  0  0  0  0  0  0  0999 V2000
   13.1533   -5.2399   21.0682 C   0  0  0  0  0  0  0  0  0  0  0  0
   10.4729   -4.0295   17.6135 C   0  0  0  0  0  0  0  0  0  0  0  0
   10.4789   -4.3641   20.9564 C   0  0  0  0  0  0  0  0  0  0  0  0
    8.7421   -5.1412   16.3650 C   0  0  0  0  0  0  0  0  0  0  0  0
   11.4353   -2.9204   17.8044 C   0  0  0  0  0  0  0  0  0  0  0  0
   11.1529   -4.3028   22.1277 C   0  0  0  0  0  0  0  0  0  0  0  0
   11.1290   -4.8502   19.8052 C   0  0  0  0  0  0  0  0  0  0  0  0
   12.4329   -4.2159   24.4224 C   0  0  0  0  0  0  0  0  0  0  0  0
    3.4740   -9.0387   16.5022 C   0  0  0  0  0  0  0  0  0  0  0  0
    6.8384   -7.9290   17.5282 N   0  0  0  0  0  0  0  0  0  0  0  0
    9.4126   -5.9853   18.4899 C   0  0  0  0  0  0  0  0  0  0  0  0
    4.2064  -10.3242   18.3302 C   0  0  0  0  0  0  0  0  0  0  0  0
    9.6599   -4.1551   16.4796 N   0  0  0  0  0  0  0  0  0  0  0  0
    7.0644   -6.4612   15.7375 N   0  0  0  0  0  0  0  0  0  0  0  0
    5.3549   -9.6322   18.3190 C   0  0  0  0  0  0  0  0  0  0  0  0
   10.3704   -4.9638   18.6510 C   0  0  0  0  0  0  0  0  0  0  0  0
    5.5935   -8.6419   17.4234 C   0  0  0  0  0  0  0  0  0  0  0  0
   13.0726   -4.6648   23.3394 O   0  0  0  0  0  0  0  0  0  0  0  0
    8.5955   -6.0705   17.3996 C   0  0  0  0  0  0  0  0  0  0  0  0
    4.6223   -8.3832   16.5030 C   0  0  0  0  0  0  0  0  0  0  0  0
   12.4690   -5.2624   19.9024 C   0  0  0  0  0  0  0  0  0  0  0  0
    3.2548   -9.9919   17.4189 C   0  0  0  0  0  0  0  0  0  0  0  0
   12.4767   -4.7393   22.1790 C   0  0  0  0  0  0  0  0  0  0  0  0
    7.8593   -5.3772   15.3569 N   0  0  0  0  0  0  0  0  0  0  0  0
    7.4412   -6.9038   16.9283 C   0  0  0  0  0  0  0  0  0  0  0  0
  1 21  4  0
  1 23  4  0
  2  5  1  0
  2 13  4  0
  2 16  4  0
  3  6  4  0
  3  7  4  0
  4 13  4  0
  4 19  4  0
  4 24  4  0
  6 23  4  0
  7 16  1  0
  7 21  4  0
  8 18  1  0
  9 20  4  0
  9 22  4  0
 10 17  1  0
 10 25  1  0
 11 16  4  0
 11 19  4  0
 12 15  4  0
 12 22  4  0
 14 24  4  0
 14 25  4  0
 15 17  4  0
 17 20  4  0
 18 23  1  0
 19 25  4  0
M  END
$$$$

 Created by Python create_sdf_string function

 25 28  0  0  0  0  0  0  0  0999 V2000
   13.1533   -5.2399   21.0682 C   0  0  0  0  0  0  0  0  0  0  0  0
   10.4729   -4.0295   17.6135 C   0  0  0  0  0  0  0  0  0  0  0  0
   10.4789   -4.3641   20.9564 C   0  0  0  0  0  0  0  0  0  0  0  0
    8.7421   -5.1412   16.3650 C   0  0  0  0  0  0  0  0  0  0  0  0
   11.4353   -2.9204   17.8044 C   0  0  0  0  0  0  0  0  0  0  0  0
   11.1529   -4.3028   22.1277 C   0  0  0  0  0  0  0  0  0  0  0  0
   11.1290   -4.8502   19.8052 C   0  0  0  0  0  0  0  0  0  0  0  0
   12.4329   -4.2159   24.4224 C   0  0  0  0  0  0  0  0  0  0  0  0
    3.4740   -9.0387   16.5022 C   0  0  0  0  0  0  0  0  0  0  0  0
    6.8384   -7.9290   17.5282 N   0  0  0  0  0  0  0  0  0  0  0  0
    9.4126   -5.9853   18.4899 C   0  0  0  0  0  0  0  0  0  0  0  0
    4.2064  -10.3242   18.3302 C   0  0  0  0  0  0  0  0  0  0  0  0
    9.6599   -4.1551   16.4796 N   0  0  0  0  0  0  0  0  0  0  0  0
    7.0644   -6.4612   15.7375 N   0  0  0  0  0  0  0  0  0  0  0  0
    5.3549   -9.6322   18.3190 C   0  0  0  0  0  0  0  0  0  0  0  0
   10.3704   -4.9638   18.6510 C   0  0  0  0  0  0  0  0  0  0  0  0
    5.5935   -8.6419   17.4234 C   0  0  0  0  0  0  0  0  0  0  0  0
   13.0726   -4.6648   23.3394 O   0  0  0  0  0  0  0  0  0  0  0  0
    8.5955   -6.0705   17.3996 C   0  0  0  0  0  0  0  0  0  0  0  0
    4.6223   -8.3832   16.5030 C   0  0  0  0  0  0  0  0  0  0  0  0
   12.4690   -5.2624   19.9024 C   0  0  0  0  0  0  0  0  0  0  0  0
    3.2548   -9.9919   17.4189 C   0  0  0  0  0  0  0  0  0  0  0  0
   12.4767   -4.7393   22.1790 C   0  0  0  0  0  0  0  0  0  0  0  0
    7.8593   -5.3772   15.3569 N   0  0  0  0  0  0  0  0  0  0  0  0
    7.4412   -6.9038   16.9283 C   0  0  0  0  0  0  0  0  0  0  0  0
  1 21  4  0
  1 23  4  0
  2  5  1  0
  2 13  4  0
  2 16  4  0
  3  6  4  0
  3  7  4  0
  4 13  4  0
  4 19  4  0
  4 24  4  0
  6 23  4  0
  7 16  1  0
  7 21  4  0
  8 18  1  0
  9 20  4  0
  9 22  4  0
 10 17  1  0
 10 25  1  0
 11 16  4  0
 11 19  4  0
 12 15  4  0
 12 22  4  0
 14 24  4  0
 14 25  4  0
 15 17  4  0
 17 20  4  0
 18 23  1  0
 19 25  4  0
M  END
$$$$

 Created by Python create_sdf_string function

 25 28  0  0  0  0  0  0  0  0999 V2000
   13.1533   -5.2399   21.0682 C   0  0  0  0  0  0  0  0  0  0  0  0
   10.4729   -4.0295   17.6135 C   0  0  0  0  0  0  0  0  0  0  0  0
   10.4789   -4.3641   20.9564 C   0  0  0  0  0  0  0  0  0  0  0  0
    8.7421   -5.1412   16.3650 C   0  0  0  0  0  0  0  0  0  0  0  0
   11.4353   -2.9204   17.8044 C   0  0  0  0  0  0  0  0  0  0  0  0
   11.1529   -4.3028   22.1277 C   0  0  0  0  0  0  0  0  0  0  0  0
   11.1290   -4.8502   19.8052 C   0  0  0  0  0  0  0  0  0  0  0  0
   12.4329   -4.2159   24.4224 C   0  0  0  0  0  0  0  0  0  0  0  0
    3.4740   -9.0387   16.5022 C   0  0  0  0  0  0  0  0  0  0  0  0
    6.8384   -7.9290   17.5282 N   0  0  0  0  0  0  0  0  0  0  0  0
    9.4126   -5.9853   18.4899 C   0  0  0  0  0  0  0  0  0  0  0  0
    4.2064  -10.3242   18.3302 C   0  0  0  0  0  0  0  0  0  0  0  0
    9.6599   -4.1551   16.4796 N   0  0  0  0  0  0  0  0  0  0  0  0
    7.0644   -6.4612   15.7375 N   0  0  0  0  0  0  0  0  0  0  0  0
    5.3549   -9.6322   18.3190 C   0  0  0  0  0  0  0  0  0  0  0  0
   10.3704   -4.9638   18.6510 C   0  0  0  0  0  0  0  0  0  0  0  0
    5.5935   -8.6419   17.4234 C   0  0  0  0  0  0  0  0  0  0  0  0
   13.0726   -4.6648   23.3394 O   0  0  0  0  0  0  0  0  0  0  0  0
    8.5955   -6.0705   17.3996 C   0  0  0  0  0  0  0  0  0  0  0  0
    4.6223   -8.3832   16.5030 C   0  0  0  0  0  0  0  0  0  0  0  0
   12.4690   -5.2624   19.9024 C   0  0  0  0  0  0  0  0  0  0  0  0
    3.2548   -9.9919   17.4189 C   0  0  0  0  0  0  0  0  0  0  0  0
   12.4767   -4.7393   22.1790 C   0  0  0  0  0  0  0  0  0  0  0  0
    7.8593   -5.3772   15.3569 N   0  0  0  0  0  0  0  0  0  0  0  0
    7.4412   -6.9038   16.9283 C   0  0  0  0  0  0  0  0  0  0  0  0
  1 21  4  0
  1 23  4  0
  2  5  1  0
  2 13  4  0
  2 16  4  0
  3  6  4  0
  3  7  4  0
  4 13  4  0
  4 19  4  0
  4 24  4  0
  6 23  4  0
  7 16  1  0
  7 21  4  0
  8 18  1  0
  9 20  4  0
  9 22  4  0
 10 17  1  0
 10 25  1  0
 11 16  4  0
 11 19  4  0
 12 15  4  0
 12 22  4  0
 14 24  4  0
 14 25  4  0
 15 17  4  0
 17 20  4  0
 18 23  1  0
 19 25  4  0
M  END
$$$$

 Created by Python create_sdf_string function

 25 28  0  0  0  0  0  0  0  0999 V2000
   13.1533   -5.2399   21.0682 C   0  0  0  0  0  0  0  0  0  0  0  0
   10.4729   -4.0295   17.6135 C   0  0  0  0  0  0  0  0  0  0  0  0
   10.4789   -4.3641   20.9564 C   0  0  0  0  0  0  0  0  0  0  0  0
    8.7421   -5.1412   16.3650 C   0  0  0  0  0  0  0  0  0  0  0  0
   11.4353   -2.9204   17.8044 C   0  0  0  0  0  0  0  0  0  0  0  0
   11.1529   -4.3028   22.1277 C   0  0  0  0  0  0  0  0  0  0  0  0
   11.1290   -4.8502   19.8052 C   0  0  0  0  0  0  0  0  0  0  0  0
   12.4329   -4.2159   24.4224 C   0  0  0  0  0  0  0  0  0  0  0  0
    3.4740   -9.0387   16.5022 C   0  0  0  0  0  0  0  0  0  0  0  0
    6.8384   -7.9290   17.5282 N   0  0  0  0  0  0  0  0  0  0  0  0
    9.4126   -5.9853   18.4899 C   0  0  0  0  0  0  0  0  0  0  0  0
    4.2064  -10.3242   18.3302 C   0  0  0  0  0  0  0  0  0  0  0  0
    9.6599   -4.1551   16.4796 N   0  0  0  0  0  0  0  0  0  0  0  0
    7.0644   -6.4612   15.7375 N   0  0  0  0  0  0  0  0  0  0  0  0
    5.3549   -9.6322   18.3190 C   0  0  0  0  0  0  0  0  0  0  0  0
   10.3704   -4.9638   18.6510 C   0  0  0  0  0  0  0  0  0  0  0  0
    5.5935   -8.6419   17.4234 C   0  0  0  0  0  0  0  0  0  0  0  0
   13.0726   -4.6648   23.3394 O   0  0  0  0  0  0  0  0  0  0  0  0
    8.5955   -6.0705   17.3996 C   0  0  0  0  0  0  0  0  0  0  0  0
    4.6223   -8.3832   16.5030 C   0  0  0  0  0  0  0  0  0  0  0  0
   12.4690   -5.2624   19.9024 C   0  0  0  0  0  0  0  0  0  0  0  0
    3.2548   -9.9919   17.4189 C   0  0  0  0  0  0  0  0  0  0  0  0
   12.4767   -4.7393   22.1790 C   0  0  0  0  0  0  0  0  0  0  0  0
    7.8593   -5.3772   15.3569 N   0  0  0  0  0  0  0  0  0  0  0  0
    7.4412   -6.9038   16.9283 C   0  0  0  0  0  0  0  0  0  0  0  0
  1 21  4  0
  1 23  4  0
  2  5  1  0
  2 13  4  0
  2 16  4  0
  3  6  4  0
  3  7  4  0
  4 13  4  0
  4 19  4  0
  4 24  4  0
  6 23  4  0
  7 16  1  0
  7 21  4  0
  8 18  1  0
  9 20  4  0
  9 22  4  0
 10 17  1  0
 10 25  1  0
 11 16  4  0
 11 19  4  0
 12 15  4  0
 12 22  4  0
 14 24  4  0
 14 25  4  0
 15 17  4  0
 17 20  4  0
 18 23  1  0
 19 25  4  0
M  END
$$$$

 Created by Python create_sdf_string function

 25 28  0  0  0  0  0  0  0  0999 V2000
   13.1533   -5.2399   21.0682 C   0  0  0  0  0  0  0  0  0  0  0  0
   10.4729   -4.0295   17.6135 C   0  0  0  0  0  0  0  0  0  0  0  0
   10.4789   -4.3641   20.9564 C   0  0  0  0  0  0  0  0  0  0  0  0
    8.7421   -5.1412   16.3650 C   0  0  0  0  0  0  0  0  0  0  0  0
   11.4353   -2.9204   17.8044 C   0  0  0  0  0  0  0  0  0  0  0  0
   11.1529   -4.3028   22.1277 C   0  0  0  0  0  0  0  0  0  0  0  0
   11.1290   -4.8502   19.8052 C   0  0  0  0  0  0  0  0  0  0  0  0
   12.4329   -4.2159   24.4224 C   0  0  0  0  0  0  0  0  0  0  0  0
    3.4740   -9.0387   16.5022 C   0  0  0  0  0  0  0  0  0  0  0  0
    6.8384   -7.9290   17.5282 N   0  0  0  0  0  0  0  0  0  0  0  0
    9.4126   -5.9853   18.4899 C   0  0  0  0  0  0  0  0  0  0  0  0
    4.2064  -10.3242   18.3302 C   0  0  0  0  0  0  0  0  0  0  0  0
    9.6599   -4.1551   16.4796 N   0  0  0  0  0  0  0  0  0  0  0  0
    7.0644   -6.4612   15.7375 N   0  0  0  0  0  0  0  0  0  0  0  0
    5.3549   -9.6322   18.3190 C   0  0  0  0  0  0  0  0  0  0  0  0
   10.3704   -4.9638   18.6510 C   0  0  0  0  0  0  0  0  0  0  0  0
    5.5935   -8.6419   17.4234 C   0  0  0  0  0  0  0  0  0  0  0  0
   13.0726   -4.6648   23.3394 O   0  0  0  0  0  0  0  0  0  0  0  0
    8.5955   -6.0705   17.3996 C   0  0  0  0  0  0  0  0  0  0  0  0
    4.6223   -8.3832   16.5030 C   0  0  0  0  0  0  0  0  0  0  0  0
   12.4690   -5.2624   19.9024 C   0  0  0  0  0  0  0  0  0  0  0  0
    3.2548   -9.9919   17.4189 C   0  0  0  0  0  0  0  0  0  0  0  0
   12.4767   -4.7393   22.1790 C   0  0  0  0  0  0  0  0  0  0  0  0
    7.8593   -5.3772   15.3569 N   0  0  0  0  0  0  0  0  0  0  0  0
    7.4412   -6.9038   16.9283 C   0  0  0  0  0  0  0  0  0  0  0  0
  1 21  4  0
  1 23  4  0
  2  5  1  0
  2 13  4  0
  2 16  4  0
  3  6  4  0
  3  7  4  0
  4 13  4  0
  4 19  4  0
  4 24  4  0
  6 23  4  0
  7 16  1  0
  7 21  4  0
  8 18  1  0
  9 20  4  0
  9 22  4  0
 10 17  1  0
 10 25  1  0
 11 16  4  0
 11 19  4  0
 12 15  4  0
 12 22  4  0
 14 24  4  0
 14 25  4  0
 15 17  4  0
 17 20  4  0
 18 23  1  0
 19 25  4  0
M  END
$$$$

 Created by Python create_sdf_string function

 25 28  0  0  0  0  0  0  0  0999 V2000
   13.1533   -5.2399   21.0682 C   0  0  0  0  0  0  0  0  0  0  0  0
   10.4729   -4.0295   17.6135 C   0  0  0  0  0  0  0  0  0  0  0  0
   10.4789   -4.3641   20.9564 C   0  0  0  0  0  0  0  0  0  0  0  0
    8.7421   -5.1412   16.3650 C   0  0  0  0  0  0  0  0  0  0  0  0
   11.4353   -2.9204   17.8044 C   0  0  0  0  0  0  0  0  0  0  0  0
   11.1529   -4.3028   22.1277 C   0  0  0  0  0  0  0  0  0  0  0  0
   11.1290   -4.8502   19.8052 C   0  0  0  0  0  0  0  0  0  0  0  0
   12.4329   -4.2159   24.4224 C   0  0  0  0  0  0  0  0  0  0  0  0
    3.4740   -9.0387   16.5022 C   0  0  0  0  0  0  0  0  0  0  0  0
    6.8384   -7.9290   17.5282 N   0  0  0  0  0  0  0  0  0  0  0  0
    9.4126   -5.9853   18.4899 C   0  0  0  0  0  0  0  0  0  0  0  0
    4.2064  -10.3242   18.3302 C   0  0  0  0  0  0  0  0  0  0  0  0
    9.6599   -4.1551   16.4796 N   0  0  0  0  0  0  0  0  0  0  0  0
    7.0644   -6.4612   15.7375 N   0  0  0  0  0  0  0  0  0  0  0  0
    5.3549   -9.6322   18.3190 C   0  0  0  0  0  0  0  0  0  0  0  0
   10.3704   -4.9638   18.6510 C   0  0  0  0  0  0  0  0  0  0  0  0
    5.5935   -8.6419   17.4234 C   0  0  0  0  0  0  0  0  0  0  0  0
   13.0726   -4.6648   23.3394 O   0  0  0  0  0  0  0  0  0  0  0  0
    8.5955   -6.0705   17.3996 C   0  0  0  0  0  0  0  0  0  0  0  0
    4.6223   -8.3832   16.5030 C   0  0  0  0  0  0  0  0  0  0  0  0
   12.4690   -5.2624   19.9024 C   0  0  0  0  0  0  0  0  0  0  0  0
    3.2548   -9.9919   17.4189 C   0  0  0  0  0  0  0  0  0  0  0  0
   12.4767   -4.7393   22.1790 C   0  0  0  0  0  0  0  0  0  0  0  0
    7.8593   -5.3772   15.3569 N   0  0  0  0  0  0  0  0  0  0  0  0
    7.4412   -6.9038   16.9283 C   0  0  0  0  0  0  0  0  0  0  0  0
  1 21  4  0
  1 23  4  0
  2  5  1  0
  2 13  4  0
  2 16  4  0
  3  6  4  0
  3  7  4  0
  4 13  4  0
  4 19  4  0
  4 24  4  0
  6 23  4  0
  7 16  1  0
  7 21  4  0
  8 18  1  0
  9 20  4  0
  9 22  4  0
 10 17  1  0
 10 25  1  0
 11 16  4  0
 11 19  4  0
 12 15  4  0
 12 22  4  0
 14 24  4  0
 14 25  4  0
 15 17  4  0
 17 20  4  0
 18 23  1  0
 19 25  4  0
M  END
$$$$

 Created by Python create_sdf_string function

 25 28  0  0  0  0  0  0  0  0999 V2000
   13.1533   -5.2399   21.0682 C   0  0  0  0  0  0  0  0  0  0  0  0
   10.4729   -4.0295   17.6135 C   0  0  0  0  0  0  0  0  0  0  0  0
   10.4789   -4.3641   20.9564 C   0  0  0  0  0  0  0  0  0  0  0  0
    8.7421   -5.1412   16.3650 C   0  0  0  0  0  0  0  0  0  0  0  0
   11.4353   -2.9204   17.8044 C   0  0  0  0  0  0  0  0  0  0  0  0
   11.1529   -4.3028   22.1277 C   0  0  0  0  0  0  0  0  0  0  0  0
   11.1290   -4.8502   19.8052 C   0  0  0  0  0  0  0  0  0  0  0  0
   12.4329   -4.2159   24.4224 C   0  0  0  0  0  0  0  0  0  0  0  0
    3.4740   -9.0387   16.5022 C   0  0  0  0  0  0  0  0  0  0  0  0
    6.8384   -7.9290   17.5282 N   0  0  0  0  0  0  0  0  0  0  0  0
    9.4126   -5.9853   18.4899 C   0  0  0  0  0  0  0  0  0  0  0  0
    4.2064  -10.3242   18.3302 C   0  0  0  0  0  0  0  0  0  0  0  0
    9.6599   -4.1551   16.4796 N   0  0  0  0  0  0  0  0  0  0  0  0
    7.0644   -6.4612   15.7375 N   0  0  0  0  0  0  0  0  0  0  0  0
    5.3549   -9.6322   18.3190 C   0  0  0  0  0  0  0  0  0  0  0  0
   10.3704   -4.9638   18.6510 C   0  0  0  0  0  0  0  0  0  0  0  0
    5.5935   -8.6419   17.4234 C   0  0  0  0  0  0  0  0  0  0  0  0
   13.0726   -4.6648   23.3394 O   0  0  0  0  0  0  0  0  0  0  0  0
    8.5955   -6.0705   17.3996 C   0  0  0  0  0  0  0  0  0  0  0  0
    4.6223   -8.3832   16.5030 C   0  0  0  0  0  0  0  0  0  0  0  0
   12.4690   -5.2624   19.9024 C   0  0  0  0  0  0  0  0  0  0  0  0
    3.2548   -9.9919   17.4189 C   0  0  0  0  0  0  0  0  0  0  0  0
   12.4767   -4.7393   22.1790 C   0  0  0  0  0  0  0  0  0  0  0  0
    7.8593   -5.3772   15.3569 N   0  0  0  0  0  0  0  0  0  0  0  0
    7.4412   -6.9038   16.9283 C   0  0  0  0  0  0  0  0  0  0  0  0
  1 21  4  0
  1 23  4  0
  2  5  1  0
  2 13  4  0
  2 16  4  0
  3  6  4  0
  3  7  4  0
  4 13  4  0
  4 19  4  0
  4 24  4  0
  6 23  4  0
  7 16  1  0
  7 21  4  0
  8 18  1  0
  9 20  4  0
  9 22  4  0
 10 17  1  0
 10 25  1  0
 11 16  4  0
 11 19  4  0
 12 15  4  0
 12 22  4  0
 14 24  4  0
 14 25  4  0
 15 17  4  0
 17 20  4  0
 18 23  1  0
 19 25  4  0
M  END
$$$$

 Created by Python create_sdf_string function

 25 28  0  0  0  0  0  0  0  0999 V2000
   13.1533   -5.2399   21.0682 C   0  0  0  0  0  0  0  0  0  0  0  0
   10.4729   -4.0295   17.6135 C   0  0  0  0  0  0  0  0  0  0  0  0
   10.4789   -4.3641   20.9564 C   0  0  0  0  0  0  0  0  0  0  0  0
    8.7421   -5.1412   16.3650 C   0  0  0  0  0  0  0  0  0  0  0  0
   11.4353   -2.9204   17.8044 C   0  0  0  0  0  0  0  0  0  0  0  0
   11.1529   -4.3028   22.1277 C   0  0  0  0  0  0  0  0  0  0  0  0
   11.1290   -4.8502   19.8052 C   0  0  0  0  0  0  0  0  0  0  0  0
   12.4329   -4.2159   24.4224 C   0  0  0  0  0  0  0  0  0  0  0  0
    3.4740   -9.0387   16.5022 C   0  0  0  0  0  0  0  0  0  0  0  0
    6.8384   -7.9290   17.5282 N   0  0  0  0  0  0  0  0  0  0  0  0
    9.4126   -5.9853   18.4899 C   0  0  0  0  0  0  0  0  0  0  0  0
    4.2064  -10.3242   18.3302 C   0  0  0  0  0  0  0  0  0  0  0  0
    9.6599   -4.1551   16.4796 N   0  0  0  0  0  0  0  0  0  0  0  0
    7.0644   -6.4612   15.7375 N   0  0  0  0  0  0  0  0  0  0  0  0
    5.3549   -9.6322   18.3190 C   0  0  0  0  0  0  0  0  0  0  0  0
   10.3704   -4.9638   18.6510 C   0  0  0  0  0  0  0  0  0  0  0  0
    5.5935   -8.6419   17.4234 C   0  0  0  0  0  0  0  0  0  0  0  0
   13.0726   -4.6648   23.3394 O   0  0  0  0  0  0  0  0  0  0  0  0
    8.5955   -6.0705   17.3996 C   0  0  0  0  0  0  0  0  0  0  0  0
    4.6223   -8.3832   16.5030 C   0  0  0  0  0  0  0  0  0  0  0  0
   12.4690   -5.2624   19.9024 C   0  0  0  0  0  0  0  0  0  0  0  0
    3.2548   -9.9919   17.4189 C   0  0  0  0  0  0  0  0  0  0  0  0
   12.4767   -4.7393   22.1790 C   0  0  0  0  0  0  0  0  0  0  0  0
    7.8593   -5.3772   15.3569 N   0  0  0  0  0  0  0  0  0  0  0  0
    7.4412   -6.9038   16.9283 C   0  0  0  0  0  0  0  0  0  0  0  0
  1 21  4  0
  1 23  4  0
  2  5  1  0
  2 13  4  0
  2 16  4  0
  3  6  4  0
  3  7  4  0
  4 13  4  0
  4 19  4  0
  4 24  4  0
  6 23  4  0
  7 16  1  0
  7 21  4  0
  8 18  1  0
  9 20  4  0
  9 22  4  0
 10 17  1  0
 10 25  1  0
 11 16  4  0
 11 19  4  0
 12 15  4  0
 12 22  4  0
 14 24  4  0
 14 25  4  0
 15 17  4  0
 17 20  4  0
 18 23  1  0
 19 25  4  0
M  END
$$$$

 Created by Python create_sdf_string function

 25 28  0  0  0  0  0  0  0  0999 V2000
   13.1533   -5.2399   21.0682 C   0  0  0  0  0  0  0  0  0  0  0  0
   10.4729   -4.0295   17.6135 C   0  0  0  0  0  0  0  0  0  0  0  0
   10.4789   -4.3641   20.9564 C   0  0  0  0  0  0  0  0  0  0  0  0
    8.7421   -5.1412   16.3650 C   0  0  0  0  0  0  0  0  0  0  0  0
   11.4353   -2.9204   17.8044 C   0  0  0  0  0  0  0  0  0  0  0  0
   11.1529   -4.3028   22.1277 C   0  0  0  0  0  0  0  0  0  0  0  0
   11.1290   -4.8502   19.8052 C   0  0  0  0  0  0  0  0  0  0  0  0
   12.4329   -4.2159   24.4224 C   0  0  0  0  0  0  0  0  0  0  0  0
    3.4740   -9.0387   16.5022 C   0  0  0  0  0  0  0  0  0  0  0  0
    6.8384   -7.9290   17.5282 N   0  0  0  0  0  0  0  0  0  0  0  0
    9.4126   -5.9853   18.4899 C   0  0  0  0  0  0  0  0  0  0  0  0
    4.2064  -10.3242   18.3302 C   0  0  0  0  0  0  0  0  0  0  0  0
    9.6599   -4.1551   16.4796 N   0  0  0  0  0  0  0  0  0  0  0  0
    7.0644   -6.4612   15.7375 N   0  0  0  0  0  0  0  0  0  0  0  0
    5.3549   -9.6322   18.3190 C   0  0  0  0  0  0  0  0  0  0  0  0
   10.3704   -4.9638   18.6510 C   0  0  0  0  0  0  0  0  0  0  0  0
    5.5935   -8.6419   17.4234 C   0  0  0  0  0  0  0  0  0  0  0  0
   13.0726   -4.6648   23.3394 O   0  0  0  0  0  0  0  0  0  0  0  0
    8.5955   -6.0705   17.3996 C   0  0  0  0  0  0  0  0  0  0  0  0
    4.6223   -8.3832   16.5030 C   0  0  0  0  0  0  0  0  0  0  0  0
   12.4690   -5.2624   19.9024 C   0  0  0  0  0  0  0  0  0  0  0  0
    3.2548   -9.9919   17.4189 C   0  0  0  0  0  0  0  0  0  0  0  0
   12.4767   -4.7393   22.1790 C   0  0  0  0  0  0  0  0  0  0  0  0
    7.8593   -5.3772   15.3569 N   0  0  0  0  0  0  0  0  0  0  0  0
    7.4412   -6.9038   16.9283 C   0  0  0  0  0  0  0  0  0  0  0  0
  1 21  4  0
  1 23  4  0
  2  5  1  0
  2 13  4  0
  2 16  4  0
  3  6  4  0
  3  7  4  0
  4 13  4  0
  4 19  4  0
  4 24  4  0
  6 23  4  0
  7 16  1  0
  7 21  4  0
  8 18  1  0
  9 20  4  0
  9 22  4  0
 10 17  1  0
 10 25  1  0
 11 16  4  0
 11 19  4  0
 12 15  4  0
 12 22  4  0
 14 24  4  0
 14 25  4  0
 15 17  4  0
 17 20  4  0
 18 23  1  0
 19 25  4  0
M  END
$$$$

 Created by Python create_sdf_string function

 25 28  0  0  0  0  0  0  0  0999 V2000
   13.1533   -5.2399   21.0682 C   0  0  0  0  0  0  0  0  0  0  0  0
   10.4729   -4.0295   17.6135 C   0  0  0  0  0  0  0  0  0  0  0  0
   10.4789   -4.3641   20.9564 C   0  0  0  0  0  0  0  0  0  0  0  0
    8.7421   -5.1412   16.3650 C   0  0  0  0  0  0  0  0  0  0  0  0
   11.4353   -2.9204   17.8044 C   0  0  0  0  0  0  0  0  0  0  0  0
   11.1529   -4.3028   22.1277 C   0  0  0  0  0  0  0  0  0  0  0  0
   11.1290   -4.8502   19.8052 C   0  0  0  0  0  0  0  0  0  0  0  0
   12.4329   -4.2159   24.4224 C   0  0  0  0  0  0  0  0  0  0  0  0
    3.4740   -9.0387   16.5022 C   0  0  0  0  0  0  0  0  0  0  0  0
    6.8384   -7.9290   17.5282 N   0  0  0  0  0  0  0  0  0  0  0  0
    9.4126   -5.9853   18.4899 C   0  0  0  0  0  0  0  0  0  0  0  0
    4.2064  -10.3242   18.3302 C   0  0  0  0  0  0  0  0  0  0  0  0
    9.6599   -4.1551   16.4796 N   0  0  0  0  0  0  0  0  0  0  0  0
    7.0644   -6.4612   15.7375 N   0  0  0  0  0  0  0  0  0  0  0  0
    5.3549   -9.6322   18.3190 C   0  0  0  0  0  0  0  0  0  0  0  0
   10.3704   -4.9638   18.6510 C   0  0  0  0  0  0  0  0  0  0  0  0
    5.5935   -8.6419   17.4234 C   0  0  0  0  0  0  0  0  0  0  0  0
   13.0726   -4.6648   23.3394 O   0  0  0  0  0  0  0  0  0  0  0  0
    8.5955   -6.0705   17.3996 C   0  0  0  0  0  0  0  0  0  0  0  0
    4.6223   -8.3832   16.5030 C   0  0  0  0  0  0  0  0  0  0  0  0
   12.4690   -5.2624   19.9024 C   0  0  0  0  0  0  0  0  0  0  0  0
    3.2548   -9.9919   17.4189 C   0  0  0  0  0  0  0  0  0  0  0  0
   12.4767   -4.7393   22.1790 C   0  0  0  0  0  0  0  0  0  0  0  0
    7.8593   -5.3772   15.3569 N   0  0  0  0  0  0  0  0  0  0  0  0
    7.4412   -6.9038   16.9283 C   0  0  0  0  0  0  0  0  0  0  0  0
  1 21  4  0
  1 23  4  0
  2  5  1  0
  2 13  4  0
  2 16  4  0
  3  6  4  0
  3  7  4  0
  4 13  4  0
  4 19  4  0
  4 24  4  0
  6 23  4  0
  7 16  1  0
  7 21  4  0
  8 18  1  0
  9 20  4  0
  9 22  4  0
 10 17  1  0
 10 25  1  0
 11 16  4  0
 11 19  4  0
 12 15  4  0
 12 22  4  0
 14 24  4  0
 14 25  4  0
 15 17  4  0
 17 20  4  0
 18 23  1  0
 19 25  4  0
M  END
$$$$

 Created by Python create_sdf_string function

 25 28  0  0  0  0  0  0  0  0999 V2000
   13.1533   -5.2399   21.0682 C   0  0  0  0  0  0  0  0  0  0  0  0
   10.4729   -4.0295   17.6135 C   0  0  0  0  0  0  0  0  0  0  0  0
   10.4789   -4.3641   20.9564 C   0  0  0  0  0  0  0  0  0  0  0  0
    8.7421   -5.1412   16.3650 C   0  0  0  0  0  0  0  0  0  0  0  0
   11.4353   -2.9204   17.8044 C   0  0  0  0  0  0  0  0  0  0  0  0
   11.1529   -4.3028   22.1277 C   0  0  0  0  0  0  0  0  0  0  0  0
   11.1290   -4.8502   19.8052 C   0  0  0  0  0  0  0  0  0  0  0  0
   12.4329   -4.2159   24.4224 C   0  0  0  0  0  0  0  0  0  0  0  0
    3.4740   -9.0387   16.5022 C   0  0  0  0  0  0  0  0  0  0  0  0
    6.8384   -7.9290   17.5282 N   0  0  0  0  0  0  0  0  0  0  0  0
    9.4126   -5.9853   18.4899 C   0  0  0  0  0  0  0  0  0  0  0  0
    4.2064  -10.3242   18.3302 C   0  0  0  0  0  0  0  0  0  0  0  0
    9.6599   -4.1551   16.4796 N   0  0  0  0  0  0  0  0  0  0  0  0
    7.0644   -6.4612   15.7375 N   0  0  0  0  0  0  0  0  0  0  0  0
    5.3549   -9.6322   18.3190 C   0  0  0  0  0  0  0  0  0  0  0  0
   10.3704   -4.9638   18.6510 C   0  0  0  0  0  0  0  0  0  0  0  0
    5.5935   -8.6419   17.4234 C   0  0  0  0  0  0  0  0  0  0  0  0
   13.0726   -4.6648   23.3394 O   0  0  0  0  0  0  0  0  0  0  0  0
    8.5955   -6.0705   17.3996 C   0  0  0  0  0  0  0  0  0  0  0  0
    4.6223   -8.3832   16.5030 C   0  0  0  0  0  0  0  0  0  0  0  0
   12.4690   -5.2624   19.9024 C   0  0  0  0  0  0  0  0  0  0  0  0
    3.2548   -9.9919   17.4189 C   0  0  0  0  0  0  0  0  0  0  0  0
   12.4767   -4.7393   22.1790 C   0  0  0  0  0  0  0  0  0  0  0  0
    7.8593   -5.3772   15.3569 N   0  0  0  0  0  0  0  0  0  0  0  0
    7.4412   -6.9038   16.9283 C   0  0  0  0  0  0  0  0  0  0  0  0
  1 21  4  0
  1 23  4  0
  2  5  1  0
  2 13  4  0
  2 16  4  0
  3  6  4  0
  3  7  4  0
  4 13  4  0
  4 19  4  0
  4 24  4  0
  6 23  4  0
  7 16  1  0
  7 21  4  0
  8 18  1  0
  9 20  4  0
  9 22  4  0
 10 17  1  0
 10 25  1  0
 11 16  4  0
 11 19  4  0
 12 15  4  0
 12 22  4  0
 14 24  4  0
 14 25  4  0
 15 17  4  0
 17 20  4  0
 18 23  1  0
 19 25  4  0
M  END
$$$$

 Created by Python create_sdf_string function

 25 28  0  0  0  0  0  0  0  0999 V2000
   13.1533   -5.2399   21.0682 C   0  0  0  0  0  0  0  0  0  0  0  0
   10.4729   -4.0295   17.6135 C   0  0  0  0  0  0  0  0  0  0  0  0
   10.4789   -4.3641   20.9564 C   0  0  0  0  0  0  0  0  0  0  0  0
    8.7421   -5.1412   16.3650 C   0  0  0  0  0  0  0  0  0  0  0  0
   11.4353   -2.9204   17.8044 C   0  0  0  0  0  0  0  0  0  0  0  0
   11.1529   -4.3028   22.1277 C   0  0  0  0  0  0  0  0  0  0  0  0
   11.1290   -4.8502   19.8052 C   0  0  0  0  0  0  0  0  0  0  0  0
   12.4329   -4.2159   24.4224 C   0  0  0  0  0  0  0  0  0  0  0  0
    3.4740   -9.0387   16.5022 C   0  0  0  0  0  0  0  0  0  0  0  0
    6.8384   -7.9290   17.5282 N   0  0  0  0  0  0  0  0  0  0  0  0
    9.4126   -5.9853   18.4899 C   0  0  0  0  0  0  0  0  0  0  0  0
    4.2064  -10.3242   18.3302 C   0  0  0  0  0  0  0  0  0  0  0  0
    9.6599   -4.1551   16.4796 N   0  0  0  0  0  0  0  0  0  0  0  0
    7.0644   -6.4612   15.7375 N   0  0  0  0  0  0  0  0  0  0  0  0
    5.3549   -9.6322   18.3190 C   0  0  0  0  0  0  0  0  0  0  0  0
   10.3704   -4.9638   18.6510 C   0  0  0  0  0  0  0  0  0  0  0  0
    5.5935   -8.6419   17.4234 C   0  0  0  0  0  0  0  0  0  0  0  0
   13.0726   -4.6648   23.3394 O   0  0  0  0  0  0  0  0  0  0  0  0
    8.5955   -6.0705   17.3996 C   0  0  0  0  0  0  0  0  0  0  0  0
    4.6223   -8.3832   16.5030 C   0  0  0  0  0  0  0  0  0  0  0  0
   12.4690   -5.2624   19.9024 C   0  0  0  0  0  0  0  0  0  0  0  0
    3.2548   -9.9919   17.4189 C   0  0  0  0  0  0  0  0  0  0  0  0
   12.4767   -4.7393   22.1790 C   0  0  0  0  0  0  0  0  0  0  0  0
    7.8593   -5.3772   15.3569 N   0  0  0  0  0  0  0  0  0  0  0  0
    7.4412   -6.9038   16.9283 C   0  0  0  0  0  0  0  0  0  0  0  0
  1 21  4  0
  1 23  4  0
  2  5  1  0
  2 13  4  0
  2 16  4  0
  3  6  4  0
  3  7  4  0
  4 13  4  0
  4 19  4  0
  4 24  4  0
  6 23  4  0
  7 16  1  0
  7 21  4  0
  8 18  1  0
  9 20  4  0
  9 22  4  0
 10 17  1  0
 10 25  1  0
 11 16  4  0
 11 19  4  0
 12 15  4  0
 12 22  4  0
 14 24  4  0
 14 25  4  0
 15 17  4  0
 17 20  4  0
 18 23  1  0
 19 25  4  0
M  END
$$$$

 Created by Python create_sdf_string function

 25 28  0  0  0  0  0  0  0  0999 V2000
   13.1533   -5.2399   21.0682 C   0  0  0  0  0  0  0  0  0  0  0  0
   10.4729   -4.0295   17.6135 C   0  0  0  0  0  0  0  0  0  0  0  0
   10.4789   -4.3641   20.9564 C   0  0  0  0  0  0  0  0  0  0  0  0
    8.7421   -5.1412   16.3650 C   0  0  0  0  0  0  0  0  0  0  0  0
   11.4353   -2.9204   17.8044 C   0  0  0  0  0  0  0  0  0  0  0  0
   11.1529   -4.3028   22.1277 C   0  0  0  0  0  0  0  0  0  0  0  0
   11.1290   -4.8502   19.8052 C   0  0  0  0  0  0  0  0  0  0  0  0
   12.4329   -4.2159   24.4224 C   0  0  0  0  0  0  0  0  0  0  0  0
    3.4740   -9.0387   16.5022 C   0  0  0  0  0  0  0  0  0  0  0  0
    6.8384   -7.9290   17.5282 N   0  0  0  0  0  0  0  0  0  0  0  0
    9.4126   -5.9853   18.4899 C   0  0  0  0  0  0  0  0  0  0  0  0
    4.2064  -10.3242   18.3302 C   0  0  0  0  0  0  0  0  0  0  0  0
    9.6599   -4.1551   16.4796 N   0  0  0  0  0  0  0  0  0  0  0  0
    7.0644   -6.4612   15.7375 N   0  0  0  0  0  0  0  0  0  0  0  0
    5.3549   -9.6322   18.3190 C   0  0  0  0  0  0  0  0  0  0  0  0
   10.3704   -4.9638   18.6510 C   0  0  0  0  0  0  0  0  0  0  0  0
    5.5935   -8.6419   17.4234 C   0  0  0  0  0  0  0  0  0  0  0  0
   13.0726   -4.6648   23.3394 O   0  0  0  0  0  0  0  0  0  0  0  0
    8.5955   -6.0705   17.3996 C   0  0  0  0  0  0  0  0  0  0  0  0
    4.6223   -8.3832   16.5030 C   0  0  0  0  0  0  0  0  0  0  0  0
   12.4690   -5.2624   19.9024 C   0  0  0  0  0  0  0  0  0  0  0  0
    3.2548   -9.9919   17.4189 C   0  0  0  0  0  0  0  0  0  0  0  0
   12.4767   -4.7393   22.1790 C   0  0  0  0  0  0  0  0  0  0  0  0
    7.8593   -5.3772   15.3569 N   0  0  0  0  0  0  0  0  0  0  0  0
    7.4412   -6.9038   16.9283 C   0  0  0  0  0  0  0  0  0  0  0  0
  1 21  4  0
  1 23  4  0
  2  5  1  0
  2 13  4  0
  2 16  4  0
  3  6  4  0
  3  7  4  0
  4 13  4  0
  4 19  4  0
  4 24  4  0
  6 23  4  0
  7 16  1  0
  7 21  4  0
  8 18  1  0
  9 20  4  0
  9 22  4  0
 10 17  1  0
 10 25  1  0
 11 16  4  0
 11 19  4  0
 12 15  4  0
 12 22  4  0
 14 24  4  0
 14 25  4  0
 15 17  4  0
 17 20  4  0
 18 23  1  0
 19 25  4  0
M  END
$$$$

 Created by Python create_sdf_string function

 25 28  0  0  0  0  0  0  0  0999 V2000
   13.1533   -5.2399   21.0682 C   0  0  0  0  0  0  0  0  0  0  0  0
   10.4729   -4.0295   17.6135 C   0  0  0  0  0  0  0  0  0  0  0  0
   10.4789   -4.3641   20.9564 C   0  0  0  0  0  0  0  0  0  0  0  0
    8.7421   -5.1412   16.3650 C   0  0  0  0  0  0  0  0  0  0  0  0
   11.4353   -2.9204   17.8044 C   0  0  0  0  0  0  0  0  0  0  0  0
   11.1529   -4.3028   22.1277 C   0  0  0  0  0  0  0  0  0  0  0  0
   11.1290   -4.8502   19.8052 C   0  0  0  0  0  0  0  0  0  0  0  0
   12.4329   -4.2159   24.4224 C   0  0  0  0  0  0  0  0  0  0  0  0
    3.4740   -9.0387   16.5022 C   0  0  0  0  0  0  0  0  0  0  0  0
    6.8384   -7.9290   17.5282 N   0  0  0  0  0  0  0  0  0  0  0  0
    9.4126   -5.9853   18.4899 C   0  0  0  0  0  0  0  0  0  0  0  0
    4.2064  -10.3242   18.3302 C   0  0  0  0  0  0  0  0  0  0  0  0
    9.6599   -4.1551   16.4796 N   0  0  0  0  0  0  0  0  0  0  0  0
    7.0644   -6.4612   15.7375 N   0  0  0  0  0  0  0  0  0  0  0  0
    5.3549   -9.6322   18.3190 C   0  0  0  0  0  0  0  0  0  0  0  0
   10.3704   -4.9638   18.6510 C   0  0  0  0  0  0  0  0  0  0  0  0
    5.5935   -8.6419   17.4234 C   0  0  0  0  0  0  0  0  0  0  0  0
   13.0726   -4.6648   23.3394 O   0  0  0  0  0  0  0  0  0  0  0  0
    8.5955   -6.0705   17.3996 C   0  0  0  0  0  0  0  0  0  0  0  0
    4.6223   -8.3832   16.5030 C   0  0  0  0  0  0  0  0  0  0  0  0
   12.4690   -5.2624   19.9024 C   0  0  0  0  0  0  0  0  0  0  0  0
    3.2548   -9.9919   17.4189 C   0  0  0  0  0  0  0  0  0  0  0  0
   12.4767   -4.7393   22.1790 C   0  0  0  0  0  0  0  0  0  0  0  0
    7.8593   -5.3772   15.3569 N   0  0  0  0  0  0  0  0  0  0  0  0
    7.4412   -6.9038   16.9283 C   0  0  0  0  0  0  0  0  0  0  0  0
  1 21  4  0
  1 23  4  0
  2  5  1  0
  2 13  4  0
  2 16  4  0
  3  6  4  0
  3  7  4  0
  4 13  4  0
  4 19  4  0
  4 24  4  0
  6 23  4  0
  7 16  1  0
  7 21  4  0
  8 18  1  0
  9 20  4  0
  9 22  4  0
 10 17  1  0
 10 25  1  0
 11 16  4  0
 11 19  4  0
 12 15  4  0
 12 22  4  0
 14 24  4  0
 14 25  4  0
 15 17  4  0
 17 20  4  0
 18 23  1  0
 19 25  4  0
M  END
$$$$

 Created by Python create_sdf_string function

 25 28  0  0  0  0  0  0  0  0999 V2000
   13.1533   -5.2399   21.0682 C   0  0  0  0  0  0  0  0  0  0  0  0
   10.4729   -4.0295   17.6135 C   0  0  0  0  0  0  0  0  0  0  0  0
   10.4789   -4.3641   20.9564 C   0  0  0  0  0  0  0  0  0  0  0  0
    8.7421   -5.1412   16.3650 C   0  0  0  0  0  0  0  0  0  0  0  0
   11.4353   -2.9204   17.8044 C   0  0  0  0  0  0  0  0  0  0  0  0
   11.1529   -4.3028   22.1277 C   0  0  0  0  0  0  0  0  0  0  0  0
   11.1290   -4.8502   19.8052 C   0  0  0  0  0  0  0  0  0  0  0  0
   12.4329   -4.2159   24.4224 C   0  0  0  0  0  0  0  0  0  0  0  0
    3.4740   -9.0387   16.5022 C   0  0  0  0  0  0  0  0  0  0  0  0
    6.8384   -7.9290   17.5282 N   0  0  0  0  0  0  0  0  0  0  0  0
    9.4126   -5.9853   18.4899 C   0  0  0  0  0  0  0  0  0  0  0  0
    4.2064  -10.3242   18.3302 C   0  0  0  0  0  0  0  0  0  0  0  0
    9.6599   -4.1551   16.4796 N   0  0  0  0  0  0  0  0  0  0  0  0
    7.0644   -6.4612   15.7375 N   0  0  0  0  0  0  0  0  0  0  0  0
    5.3549   -9.6322   18.3190 C   0  0  0  0  0  0  0  0  0  0  0  0
   10.3704   -4.9638   18.6510 C   0  0  0  0  0  0  0  0  0  0  0  0
    5.5935   -8.6419   17.4234 C   0  0  0  0  0  0  0  0  0  0  0  0
   13.0726   -4.6648   23.3394 O   0  0  0  0  0  0  0  0  0  0  0  0
    8.5955   -6.0705   17.3996 C   0  0  0  0  0  0  0  0  0  0  0  0
    4.6223   -8.3832   16.5030 C   0  0  0  0  0  0  0  0  0  0  0  0
   12.4690   -5.2624   19.9024 C   0  0  0  0  0  0  0  0  0  0  0  0
    3.2548   -9.9919   17.4189 C   0  0  0  0  0  0  0  0  0  0  0  0
   12.4767   -4.7393   22.1790 C   0  0  0  0  0  0  0  0  0  0  0  0
    7.8593   -5.3772   15.3569 N   0  0  0  0  0  0  0  0  0  0  0  0
    7.4412   -6.9038   16.9283 C   0  0  0  0  0  0  0  0  0  0  0  0
  1 21  4  0
  1 23  4  0
  2  5  1  0
  2 13  4  0
  2 16  4  0
  3  6  4  0
  3  7  4  0
  4 13  4  0
  4 19  4  0
  4 24  4  0
  6 23  4  0
  7 16  1  0
  7 21  4  0
  8 18  1  0
  9 20  4  0
  9 22  4  0
 10 17  1  0
 10 25  1  0
 11 16  4  0
 11 19  4  0
 12 15  4  0
 12 22  4  0
 14 24  4  0
 14 25  4  0
 15 17  4  0
 17 20  4  0
 18 23  1  0
 19 25  4  0
M  END
$$$$

 Created by Python create_sdf_string function

 25 28  0  0  0  0  0  0  0  0999 V2000
   13.1533   -5.2399   21.0682 C   0  0  0  0  0  0  0  0  0  0  0  0
   10.4729   -4.0295   17.6135 C   0  0  0  0  0  0  0  0  0  0  0  0
   10.4789   -4.3641   20.9564 C   0  0  0  0  0  0  0  0  0  0  0  0
    8.7421   -5.1412   16.3650 C   0  0  0  0  0  0  0  0  0  0  0  0
   11.4353   -2.9204   17.8044 C   0  0  0  0  0  0  0  0  0  0  0  0
   11.1529   -4.3028   22.1277 C   0  0  0  0  0  0  0  0  0  0  0  0
   11.1290   -4.8502   19.8052 C   0  0  0  0  0  0  0  0  0  0  0  0
   12.4329   -4.2159   24.4224 C   0  0  0  0  0  0  0  0  0  0  0  0
    3.4740   -9.0387   16.5022 C   0  0  0  0  0  0  0  0  0  0  0  0
    6.8384   -7.9290   17.5282 N   0  0  0  0  0  0  0  0  0  0  0  0
    9.4126   -5.9853   18.4899 C   0  0  0  0  0  0  0  0  0  0  0  0
    4.2064  -10.3242   18.3302 C   0  0  0  0  0  0  0  0  0  0  0  0
    9.6599   -4.1551   16.4796 N   0  0  0  0  0  0  0  0  0  0  0  0
    7.0644   -6.4612   15.7375 N   0  0  0  0  0  0  0  0  0  0  0  0
    5.3549   -9.6322   18.3190 C   0  0  0  0  0  0  0  0  0  0  0  0
   10.3704   -4.9638   18.6510 C   0  0  0  0  0  0  0  0  0  0  0  0
    5.5935   -8.6419   17.4234 C   0  0  0  0  0  0  0  0  0  0  0  0
   13.0726   -4.6648   23.3394 O   0  0  0  0  0  0  0  0  0  0  0  0
    8.5955   -6.0705   17.3996 C   0  0  0  0  0  0  0  0  0  0  0  0
    4.6223   -8.3832   16.5030 C   0  0  0  0  0  0  0  0  0  0  0  0
   12.4690   -5.2624   19.9024 C   0  0  0  0  0  0  0  0  0  0  0  0
    3.2548   -9.9919   17.4189 C   0  0  0  0  0  0  0  0  0  0  0  0
   12.4767   -4.7393   22.1790 C   0  0  0  0  0  0  0  0  0  0  0  0
    7.8593   -5.3772   15.3569 N   0  0  0  0  0  0  0  0  0  0  0  0
    7.4412   -6.9038   16.9283 C   0  0  0  0  0  0  0  0  0  0  0  0
  1 21  4  0
  1 23  4  0
  2  5  1  0
  2 13  4  0
  2 16  4  0
  3  6  4  0
  3  7  4  0
  4 13  4  0
  4 19  4  0
  4 24  4  0
  6 23  4  0
  7 16  1  0
  7 21  4  0
  8 18  1  0
  9 20  4  0
  9 22  4  0
 10 17  1  0
 10 25  1  0
 11 16  4  0
 11 19  4  0
 12 15  4  0
 12 22  4  0
 14 24  4  0
 14 25  4  0
 15 17  4  0
 17 20  4  0
 18 23  1  0
 19 25  4  0
M  END
$$$$

 Created by Python create_sdf_string function

 25 28  0  0  0  0  0  0  0  0999 V2000
   13.1533   -5.2399   21.0682 C   0  0  0  0  0  0  0  0  0  0  0  0
   10.4729   -4.0295   17.6135 C   0  0  0  0  0  0  0  0  0  0  0  0
   10.4789   -4.3641   20.9564 C   0  0  0  0  0  0  0  0  0  0  0  0
    8.7421   -5.1412   16.3650 C   0  0  0  0  0  0  0  0  0  0  0  0
   11.4353   -2.9204   17.8044 C   0  0  0  0  0  0  0  0  0  0  0  0
   11.1529   -4.3028   22.1277 C   0  0  0  0  0  0  0  0  0  0  0  0
   11.1290   -4.8502   19.8052 C   0  0  0  0  0  0  0  0  0  0  0  0
   12.4329   -4.2159   24.4224 C   0  0  0  0  0  0  0  0  0  0  0  0
    3.4740   -9.0387   16.5022 C   0  0  0  0  0  0  0  0  0  0  0  0
    6.8384   -7.9290   17.5282 N   0  0  0  0  0  0  0  0  0  0  0  0
    9.4126   -5.9853   18.4899 C   0  0  0  0  0  0  0  0  0  0  0  0
    4.2064  -10.3242   18.3302 C   0  0  0  0  0  0  0  0  0  0  0  0
    9.6599   -4.1551   16.4796 N   0  0  0  0  0  0  0  0  0  0  0  0
    7.0644   -6.4612   15.7375 N   0  0  0  0  0  0  0  0  0  0  0  0
    5.3549   -9.6322   18.3190 C   0  0  0  0  0  0  0  0  0  0  0  0
   10.3704   -4.9638   18.6510 C   0  0  0  0  0  0  0  0  0  0  0  0
    5.5935   -8.6419   17.4234 C   0  0  0  0  0  0  0  0  0  0  0  0
   13.0726   -4.6648   23.3394 O   0  0  0  0  0  0  0  0  0  0  0  0
    8.5955   -6.0705   17.3996 C   0  0  0  0  0  0  0  0  0  0  0  0
    4.6223   -8.3832   16.5030 C   0  0  0  0  0  0  0  0  0  0  0  0
   12.4690   -5.2624   19.9024 C   0  0  0  0  0  0  0  0  0  0  0  0
    3.2548   -9.9919   17.4189 C   0  0  0  0  0  0  0  0  0  0  0  0
   12.4767   -4.7393   22.1790 C   0  0  0  0  0  0  0  0  0  0  0  0
    7.8593   -5.3772   15.3569 N   0  0  0  0  0  0  0  0  0  0  0  0
    7.4412   -6.9038   16.9283 C   0  0  0  0  0  0  0  0  0  0  0  0
  1 21  4  0
  1 23  4  0
  2  5  1  0
  2 13  4  0
  2 16  4  0
  3  6  4  0
  3  7  4  0
  4 13  4  0
  4 19  4  0
  4 24  4  0
  6 23  4  0
  7 16  1  0
  7 21  4  0
  8 18  1  0
  9 20  4  0
  9 22  4  0
 10 17  1  0
 10 25  1  0
 11 16  4  0
 11 19  4  0
 12 15  4  0
 12 22  4  0
 14 24  4  0
 14 25  4  0
 15 17  4  0
 17 20  4  0
 18 23  1  0
 19 25  4  0
M  END
$$$$

 Created by Python create_sdf_string function

 25 28  0  0  0  0  0  0  0  0999 V2000
   13.1533   -5.2399   21.0682 C   0  0  0  0  0  0  0  0  0  0  0  0
   10.4729   -4.0295   17.6135 C   0  0  0  0  0  0  0  0  0  0  0  0
   10.4789   -4.3641   20.9564 C   0  0  0  0  0  0  0  0  0  0  0  0
    8.7421   -5.1412   16.3650 C   0  0  0  0  0  0  0  0  0  0  0  0
   11.4353   -2.9204   17.8044 C   0  0  0  0  0  0  0  0  0  0  0  0
   11.1529   -4.3028   22.1277 C   0  0  0  0  0  0  0  0  0  0  0  0
   11.1290   -4.8502   19.8052 C   0  0  0  0  0  0  0  0  0  0  0  0
   12.4329   -4.2159   24.4224 C   0  0  0  0  0  0  0  0  0  0  0  0
    3.4740   -9.0387   16.5022 C   0  0  0  0  0  0  0  0  0  0  0  0
    6.8384   -7.9290   17.5282 N   0  0  0  0  0  0  0  0  0  0  0  0
    9.4126   -5.9853   18.4899 C   0  0  0  0  0  0  0  0  0  0  0  0
    4.2064  -10.3242   18.3302 C   0  0  0  0  0  0  0  0  0  0  0  0
    9.6599   -4.1551   16.4796 N   0  0  0  0  0  0  0  0  0  0  0  0
    7.0644   -6.4612   15.7375 N   0  0  0  0  0  0  0  0  0  0  0  0
    5.3549   -9.6322   18.3190 C   0  0  0  0  0  0  0  0  0  0  0  0
   10.3704   -4.9638   18.6510 C   0  0  0  0  0  0  0  0  0  0  0  0
    5.5935   -8.6419   17.4234 C   0  0  0  0  0  0  0  0  0  0  0  0
   13.0726   -4.6648   23.3394 O   0  0  0  0  0  0  0  0  0  0  0  0
    8.5955   -6.0705   17.3996 C   0  0  0  0  0  0  0  0  0  0  0  0
    4.6223   -8.3832   16.5030 C   0  0  0  0  0  0  0  0  0  0  0  0
   12.4690   -5.2624   19.9024 C   0  0  0  0  0  0  0  0  0  0  0  0
    3.2548   -9.9919   17.4189 C   0  0  0  0  0  0  0  0  0  0  0  0
   12.4767   -4.7393   22.1790 C   0  0  0  0  0  0  0  0  0  0  0  0
    7.8593   -5.3772   15.3569 N   0  0  0  0  0  0  0  0  0  0  0  0
    7.4412   -6.9038   16.9283 C   0  0  0  0  0  0  0  0  0  0  0  0
  1 21  4  0
  1 23  4  0
  2  5  1  0
  2 13  4  0
  2 16  4  0
  3  6  4  0
  3  7  4  0
  4 13  4  0
  4 19  4  0
  4 24  4  0
  6 23  4  0
  7 16  1  0
  7 21  4  0
  8 18  1  0
  9 20  4  0
  9 22  4  0
 10 17  1  0
 10 25  1  0
 11 16  4  0
 11 19  4  0
 12 15  4  0
 12 22  4  0
 14 24  4  0
 14 25  4  0
 15 17  4  0
 17 20  4  0
 18 23  1  0
 19 25  4  0
M  END
$$$$

 Created by Python create_sdf_string function

 25 28  0  0  0  0  0  0  0  0999 V2000
   13.1533   -5.2399   21.0682 C   0  0  0  0  0  0  0  0  0  0  0  0
   10.4729   -4.0295   17.6135 C   0  0  0  0  0  0  0  0  0  0  0  0
   10.4789   -4.3641   20.9564 C   0  0  0  0  0  0  0  0  0  0  0  0
    8.7421   -5.1412   16.3650 C   0  0  0  0  0  0  0  0  0  0  0  0
   11.4353   -2.9204   17.8044 C   0  0  0  0  0  0  0  0  0  0  0  0
   11.1529   -4.3028   22.1277 C   0  0  0  0  0  0  0  0  0  0  0  0
   11.1290   -4.8502   19.8052 C   0  0  0  0  0  0  0  0  0  0  0  0
   12.4329   -4.2159   24.4224 C   0  0  0  0  0  0  0  0  0  0  0  0
    3.4740   -9.0387   16.5022 C   0  0  0  0  0  0  0  0  0  0  0  0
    6.8384   -7.9290   17.5282 N   0  0  0  0  0  0  0  0  0  0  0  0
    9.4126   -5.9853   18.4899 C   0  0  0  0  0  0  0  0  0  0  0  0
    4.2064  -10.3242   18.3302 C   0  0  0  0  0  0  0  0  0  0  0  0
    9.6599   -4.1551   16.4796 N   0  0  0  0  0  0  0  0  0  0  0  0
    7.0644   -6.4612   15.7375 N   0  0  0  0  0  0  0  0  0  0  0  0
    5.3549   -9.6322   18.3190 C   0  0  0  0  0  0  0  0  0  0  0  0
   10.3704   -4.9638   18.6510 C   0  0  0  0  0  0  0  0  0  0  0  0
    5.5935   -8.6419   17.4234 C   0  0  0  0  0  0  0  0  0  0  0  0
   13.0726   -4.6648   23.3394 O   0  0  0  0  0  0  0  0  0  0  0  0
    8.5955   -6.0705   17.3996 C   0  0  0  0  0  0  0  0  0  0  0  0
    4.6223   -8.3832   16.5030 C   0  0  0  0  0  0  0  0  0  0  0  0
   12.4690   -5.2624   19.9024 C   0  0  0  0  0  0  0  0  0  0  0  0
    3.2548   -9.9919   17.4189 C   0  0  0  0  0  0  0  0  0  0  0  0
   12.4767   -4.7393   22.1790 C   0  0  0  0  0  0  0  0  0  0  0  0
    7.8593   -5.3772   15.3569 N   0  0  0  0  0  0  0  0  0  0  0  0
    7.4412   -6.9038   16.9283 C   0  0  0  0  0  0  0  0  0  0  0  0
  1 21  4  0
  1 23  4  0
  2  5  1  0
  2 13  4  0
  2 16  4  0
  3  6  4  0
  3  7  4  0
  4 13  4  0
  4 19  4  0
  4 24  4  0
  6 23  4  0
  7 16  1  0
  7 21  4  0
  8 18  1  0
  9 20  4  0
  9 22  4  0
 10 17  1  0
 10 25  1  0
 11 16  4  0
 11 19  4  0
 12 15  4  0
 12 22  4  0
 14 24  4  0
 14 25  4  0
 15 17  4  0
 17 20  4  0
 18 23  1  0
 19 25  4  0
M  END
$$$$

 Created by Python create_sdf_string function

 25 28  0  0  0  0  0  0  0  0999 V2000
   13.1533   -5.2399   21.0682 C   0  0  0  0  0  0  0  0  0  0  0  0
   10.4729   -4.0295   17.6135 C   0  0  0  0  0  0  0  0  0  0  0  0
   10.4789   -4.3641   20.9564 C   0  0  0  0  0  0  0  0  0  0  0  0
    8.7421   -5.1412   16.3650 C   0  0  0  0  0  0  0  0  0  0  0  0
   11.4353   -2.9204   17.8044 C   0  0  0  0  0  0  0  0  0  0  0  0
   11.1529   -4.3028   22.1277 C   0  0  0  0  0  0  0  0  0  0  0  0
   11.1290   -4.8502   19.8052 C   0  0  0  0  0  0  0  0  0  0  0  0
   12.4329   -4.2159   24.4224 C   0  0  0  0  0  0  0  0  0  0  0  0
    3.4740   -9.0387   16.5022 C   0  0  0  0  0  0  0  0  0  0  0  0
    6.8384   -7.9290   17.5282 N   0  0  0  0  0  0  0  0  0  0  0  0
    9.4126   -5.9853   18.4899 C   0  0  0  0  0  0  0  0  0  0  0  0
    4.2064  -10.3242   18.3302 C   0  0  0  0  0  0  0  0  0  0  0  0
    9.6599   -4.1551   16.4796 N   0  0  0  0  0  0  0  0  0  0  0  0
    7.0644   -6.4612   15.7375 N   0  0  0  0  0  0  0  0  0  0  0  0
    5.3549   -9.6322   18.3190 C   0  0  0  0  0  0  0  0  0  0  0  0
   10.3704   -4.9638   18.6510 C   0  0  0  0  0  0  0  0  0  0  0  0
    5.5935   -8.6419   17.4234 C   0  0  0  0  0  0  0  0  0  0  0  0
   13.0726   -4.6648   23.3394 O   0  0  0  0  0  0  0  0  0  0  0  0
    8.5955   -6.0705   17.3996 C   0  0  0  0  0  0  0  0  0  0  0  0
    4.6223   -8.3832   16.5030 C   0  0  0  0  0  0  0  0  0  0  0  0
   12.4690   -5.2624   19.9024 C   0  0  0  0  0  0  0  0  0  0  0  0
    3.2548   -9.9919   17.4189 C   0  0  0  0  0  0  0  0  0  0  0  0
   12.4767   -4.7393   22.1790 C   0  0  0  0  0  0  0  0  0  0  0  0
    7.8593   -5.3772   15.3569 N   0  0  0  0  0  0  0  0  0  0  0  0
    7.4412   -6.9038   16.9283 C   0  0  0  0  0  0  0  0  0  0  0  0
  1 21  4  0
  1 23  4  0
  2  5  1  0
  2 13  4  0
  2 16  4  0
  3  6  4  0
  3  7  4  0
  4 13  4  0
  4 19  4  0
  4 24  4  0
  6 23  4  0
  7 16  1  0
  7 21  4  0
  8 18  1  0
  9 20  4  0
  9 22  4  0
 10 17  1  0
 10 25  1  0
 11 16  4  0
 11 19  4  0
 12 15  4  0
 12 22  4  0
 14 24  4  0
 14 25  4  0
 15 17  4  0
 17 20  4  0
 18 23  1  0
 19 25  4  0
M  END
$$$$

 Created by Python create_sdf_string function

 25 28  0  0  0  0  0  0  0  0999 V2000
   13.1533   -5.2399   21.0682 C   0  0  0  0  0  0  0  0  0  0  0  0
   10.4729   -4.0295   17.6135 C   0  0  0  0  0  0  0  0  0  0  0  0
   10.4789   -4.3641   20.9564 C   0  0  0  0  0  0  0  0  0  0  0  0
    8.7421   -5.1412   16.3650 C   0  0  0  0  0  0  0  0  0  0  0  0
   11.4353   -2.9204   17.8044 C   0  0  0  0  0  0  0  0  0  0  0  0
   11.1529   -4.3028   22.1277 C   0  0  0  0  0  0  0  0  0  0  0  0
   11.1290   -4.8502   19.8052 C   0  0  0  0  0  0  0  0  0  0  0  0
   12.4329   -4.2159   24.4224 C   0  0  0  0  0  0  0  0  0  0  0  0
    3.4740   -9.0387   16.5022 C   0  0  0  0  0  0  0  0  0  0  0  0
    6.8384   -7.9290   17.5282 N   0  0  0  0  0  0  0  0  0  0  0  0
    9.4126   -5.9853   18.4899 C   0  0  0  0  0  0  0  0  0  0  0  0
    4.2064  -10.3242   18.3302 C   0  0  0  0  0  0  0  0  0  0  0  0
    9.6599   -4.1551   16.4796 N   0  0  0  0  0  0  0  0  0  0  0  0
    7.0644   -6.4612   15.7375 N   0  0  0  0  0  0  0  0  0  0  0  0
    5.3549   -9.6322   18.3190 C   0  0  0  0  0  0  0  0  0  0  0  0
   10.3704   -4.9638   18.6510 C   0  0  0  0  0  0  0  0  0  0  0  0
    5.5935   -8.6419   17.4234 C   0  0  0  0  0  0  0  0  0  0  0  0
   13.0726   -4.6648   23.3394 O   0  0  0  0  0  0  0  0  0  0  0  0
    8.5955   -6.0705   17.3996 C   0  0  0  0  0  0  0  0  0  0  0  0
    4.6223   -8.3832   16.5030 C   0  0  0  0  0  0  0  0  0  0  0  0
   12.4690   -5.2624   19.9024 C   0  0  0  0  0  0  0  0  0  0  0  0
    3.2548   -9.9919   17.4189 C   0  0  0  0  0  0  0  0  0  0  0  0
   12.4767   -4.7393   22.1790 C   0  0  0  0  0  0  0  0  0  0  0  0
    7.8593   -5.3772   15.3569 N   0  0  0  0  0  0  0  0  0  0  0  0
    7.4412   -6.9038   16.9283 C   0  0  0  0  0  0  0  0  0  0  0  0
  1 21  4  0
  1 23  4  0
  2  5  1  0
  2 13  4  0
  2 16  4  0
  3  6  4  0
  3  7  4  0
  4 13  4  0
  4 19  4  0
  4 24  4  0
  6 23  4  0
  7 16  1  0
  7 21  4  0
  8 18  1  0
  9 20  4  0
  9 22  4  0
 10 17  1  0
 10 25  1  0
 11 16  4  0
 11 19  4  0
 12 15  4  0
 12 22  4  0
 14 24  4  0
 14 25  4  0
 15 17  4  0
 17 20  4  0
 18 23  1  0
 19 25  4  0
M  END
$$$$

 Created by Python create_sdf_string function

 25 28  0  0  0  0  0  0  0  0999 V2000
   13.1533   -5.2399   21.0682 C   0  0  0  0  0  0  0  0  0  0  0  0
   10.4729   -4.0295   17.6135 C   0  0  0  0  0  0  0  0  0  0  0  0
   10.4789   -4.3641   20.9564 C   0  0  0  0  0  0  0  0  0  0  0  0
    8.7421   -5.1412   16.3650 C   0  0  0  0  0  0  0  0  0  0  0  0
   11.4353   -2.9204   17.8044 C   0  0  0  0  0  0  0  0  0  0  0  0
   11.1529   -4.3028   22.1277 C   0  0  0  0  0  0  0  0  0  0  0  0
   11.1290   -4.8502   19.8052 C   0  0  0  0  0  0  0  0  0  0  0  0
   12.4329   -4.2159   24.4224 C   0  0  0  0  0  0  0  0  0  0  0  0
    3.4740   -9.0387   16.5022 C   0  0  0  0  0  0  0  0  0  0  0  0
    6.8384   -7.9290   17.5282 N   0  0  0  0  0  0  0  0  0  0  0  0
    9.4126   -5.9853   18.4899 C   0  0  0  0  0  0  0  0  0  0  0  0
    4.2064  -10.3242   18.3302 C   0  0  0  0  0  0  0  0  0  0  0  0
    9.6599   -4.1551   16.4796 N   0  0  0  0  0  0  0  0  0  0  0  0
    7.0644   -6.4612   15.7375 N   0  0  0  0  0  0  0  0  0  0  0  0
    5.3549   -9.6322   18.3190 C   0  0  0  0  0  0  0  0  0  0  0  0
   10.3704   -4.9638   18.6510 C   0  0  0  0  0  0  0  0  0  0  0  0
    5.5935   -8.6419   17.4234 C   0  0  0  0  0  0  0  0  0  0  0  0
   13.0726   -4.6648   23.3394 O   0  0  0  0  0  0  0  0  0  0  0  0
    8.5955   -6.0705   17.3996 C   0  0  0  0  0  0  0  0  0  0  0  0
    4.6223   -8.3832   16.5030 C   0  0  0  0  0  0  0  0  0  0  0  0
   12.4690   -5.2624   19.9024 C   0  0  0  0  0  0  0  0  0  0  0  0
    3.2548   -9.9919   17.4189 C   0  0  0  0  0  0  0  0  0  0  0  0
   12.4767   -4.7393   22.1790 C   0  0  0  0  0  0  0  0  0  0  0  0
    7.8593   -5.3772   15.3569 N   0  0  0  0  0  0  0  0  0  0  0  0
    7.4412   -6.9038   16.9283 C   0  0  0  0  0  0  0  0  0  0  0  0
  1 21  4  0
  1 23  4  0
  2  5  1  0
  2 13  4  0
  2 16  4  0
  3  6  4  0
  3  7  4  0
  4 13  4  0
  4 19  4  0
  4 24  4  0
  6 23  4  0
  7 16  1  0
  7 21  4  0
  8 18  1  0
  9 20  4  0
  9 22  4  0
 10 17  1  0
 10 25  1  0
 11 16  4  0
 11 19  4  0
 12 15  4  0
 12 22  4  0
 14 24  4  0
 14 25  4  0
 15 17  4  0
 17 20  4  0
 18 23  1  0
 19 25  4  0
M  END
$$$$

 Created by Python create_sdf_string function

 25 28  0  0  0  0  0  0  0  0999 V2000
   13.1533   -5.2399   21.0682 C   0  0  0  0  0  0  0  0  0  0  0  0
   10.4729   -4.0295   17.6135 C   0  0  0  0  0  0  0  0  0  0  0  0
   10.4789   -4.3641   20.9564 C   0  0  0  0  0  0  0  0  0  0  0  0
    8.7421   -5.1412   16.3650 C   0  0  0  0  0  0  0  0  0  0  0  0
   11.4353   -2.9204   17.8044 C   0  0  0  0  0  0  0  0  0  0  0  0
   11.1529   -4.3028   22.1277 C   0  0  0  0  0  0  0  0  0  0  0  0
   11.1290   -4.8502   19.8052 C   0  0  0  0  0  0  0  0  0  0  0  0
   12.4329   -4.2159   24.4224 C   0  0  0  0  0  0  0  0  0  0  0  0
    3.4740   -9.0387   16.5022 C   0  0  0  0  0  0  0  0  0  0  0  0
    6.8384   -7.9290   17.5282 N   0  0  0  0  0  0  0  0  0  0  0  0
    9.4126   -5.9853   18.4899 C   0  0  0  0  0  0  0  0  0  0  0  0
    4.2064  -10.3242   18.3302 C   0  0  0  0  0  0  0  0  0  0  0  0
    9.6599   -4.1551   16.4796 N   0  0  0  0  0  0  0  0  0  0  0  0
    7.0644   -6.4612   15.7375 N   0  0  0  0  0  0  0  0  0  0  0  0
    5.3549   -9.6322   18.3190 C   0  0  0  0  0  0  0  0  0  0  0  0
   10.3704   -4.9638   18.6510 C   0  0  0  0  0  0  0  0  0  0  0  0
    5.5935   -8.6419   17.4234 C   0  0  0  0  0  0  0  0  0  0  0  0
   13.0726   -4.6648   23.3394 O   0  0  0  0  0  0  0  0  0  0  0  0
    8.5955   -6.0705   17.3996 C   0  0  0  0  0  0  0  0  0  0  0  0
    4.6223   -8.3832   16.5030 C   0  0  0  0  0  0  0  0  0  0  0  0
   12.4690   -5.2624   19.9024 C   0  0  0  0  0  0  0  0  0  0  0  0
    3.2548   -9.9919   17.4189 C   0  0  0  0  0  0  0  0  0  0  0  0
   12.4767   -4.7393   22.1790 C   0  0  0  0  0  0  0  0  0  0  0  0
    7.8593   -5.3772   15.3569 N   0  0  0  0  0  0  0  0  0  0  0  0
    7.4412   -6.9038   16.9283 C   0  0  0  0  0  0  0  0  0  0  0  0
  1 21  4  0
  1 23  4  0
  2  5  1  0
  2 13  4  0
  2 16  4  0
  3  6  4  0
  3  7  4  0
  4 13  4  0
  4 19  4  0
  4 24  4  0
  6 23  4  0
  7 16  1  0
  7 21  4  0
  8 18  1  0
  9 20  4  0
  9 22  4  0
 10 17  1  0
 10 25  1  0
 11 16  4  0
 11 19  4  0
 12 15  4  0
 12 22  4  0
 14 24  4  0
 14 25  4  0
 15 17  4  0
 17 20  4  0
 18 23  1  0
 19 25  4  0
M  END
$$$$

 Created by Python create_sdf_string function

 25 28  0  0  0  0  0  0  0  0999 V2000
   13.1533   -5.2399   21.0682 C   0  0  0  0  0  0  0  0  0  0  0  0
   10.4729   -4.0295   17.6135 C   0  0  0  0  0  0  0  0  0  0  0  0
   10.4789   -4.3641   20.9564 C   0  0  0  0  0  0  0  0  0  0  0  0
    8.7421   -5.1412   16.3650 C   0  0  0  0  0  0  0  0  0  0  0  0
   11.4353   -2.9204   17.8044 C   0  0  0  0  0  0  0  0  0  0  0  0
   11.1529   -4.3028   22.1277 C   0  0  0  0  0  0  0  0  0  0  0  0
   11.1290   -4.8502   19.8052 C   0  0  0  0  0  0  0  0  0  0  0  0
   12.4329   -4.2159   24.4224 C   0  0  0  0  0  0  0  0  0  0  0  0
    3.4740   -9.0387   16.5022 C   0  0  0  0  0  0  0  0  0  0  0  0
    6.8384   -7.9290   17.5282 N   0  0  0  0  0  0  0  0  0  0  0  0
    9.4126   -5.9853   18.4899 C   0  0  0  0  0  0  0  0  0  0  0  0
    4.2064  -10.3242   18.3302 C   0  0  0  0  0  0  0  0  0  0  0  0
    9.6599   -4.1551   16.4796 N   0  0  0  0  0  0  0  0  0  0  0  0
    7.0644   -6.4612   15.7375 N   0  0  0  0  0  0  0  0  0  0  0  0
    5.3549   -9.6322   18.3190 C   0  0  0  0  0  0  0  0  0  0  0  0
   10.3704   -4.9638   18.6510 C   0  0  0  0  0  0  0  0  0  0  0  0
    5.5935   -8.6419   17.4234 C   0  0  0  0  0  0  0  0  0  0  0  0
   13.0726   -4.6648   23.3394 O   0  0  0  0  0  0  0  0  0  0  0  0
    8.5955   -6.0705   17.3996 C   0  0  0  0  0  0  0  0  0  0  0  0
    4.6223   -8.3832   16.5030 C   0  0  0  0  0  0  0  0  0  0  0  0
   12.4690   -5.2624   19.9024 C   0  0  0  0  0  0  0  0  0  0  0  0
    3.2548   -9.9919   17.4189 C   0  0  0  0  0  0  0  0  0  0  0  0
   12.4767   -4.7393   22.1790 C   0  0  0  0  0  0  0  0  0  0  0  0
    7.8593   -5.3772   15.3569 N   0  0  0  0  0  0  0  0  0  0  0  0
    7.4412   -6.9038   16.9283 C   0  0  0  0  0  0  0  0  0  0  0  0
  1 21  4  0
  1 23  4  0
  2  5  1  0
  2 13  4  0
  2 16  4  0
  3  6  4  0
  3  7  4  0
  4 13  4  0
  4 19  4  0
  4 24  4  0
  6 23  4  0
  7 16  1  0
  7 21  4  0
  8 18  1  0
  9 20  4  0
  9 22  4  0
 10 17  1  0
 10 25  1  0
 11 16  4  0
 11 19  4  0
 12 15  4  0
 12 22  4  0
 14 24  4  0
 14 25  4  0
 15 17  4  0
 17 20  4  0
 18 23  1  0
 19 25  4  0
M  END
$$$$

 Created by Python create_sdf_string function

 25 28  0  0  0  0  0  0  0  0999 V2000
   13.1533   -5.2399   21.0682 C   0  0  0  0  0  0  0  0  0  0  0  0
   10.4729   -4.0295   17.6135 C   0  0  0  0  0  0  0  0  0  0  0  0
   10.4789   -4.3641   20.9564 C   0  0  0  0  0  0  0  0  0  0  0  0
    8.7421   -5.1412   16.3650 C   0  0  0  0  0  0  0  0  0  0  0  0
   11.4353   -2.9204   17.8044 C   0  0  0  0  0  0  0  0  0  0  0  0
   11.1529   -4.3028   22.1277 C   0  0  0  0  0  0  0  0  0  0  0  0
   11.1290   -4.8502   19.8052 C   0  0  0  0  0  0  0  0  0  0  0  0
   12.4329   -4.2159   24.4224 C   0  0  0  0  0  0  0  0  0  0  0  0
    3.4740   -9.0387   16.5022 C   0  0  0  0  0  0  0  0  0  0  0  0
    6.8384   -7.9290   17.5282 N   0  0  0  0  0  0  0  0  0  0  0  0
    9.4126   -5.9853   18.4899 C   0  0  0  0  0  0  0  0  0  0  0  0
    4.2064  -10.3242   18.3302 C   0  0  0  0  0  0  0  0  0  0  0  0
    9.6599   -4.1551   16.4796 N   0  0  0  0  0  0  0  0  0  0  0  0
    7.0644   -6.4612   15.7375 N   0  0  0  0  0  0  0  0  0  0  0  0
    5.3549   -9.6322   18.3190 C   0  0  0  0  0  0  0  0  0  0  0  0
   10.3704   -4.9638   18.6510 C   0  0  0  0  0  0  0  0  0  0  0  0
    5.5935   -8.6419   17.4234 C   0  0  0  0  0  0  0  0  0  0  0  0
   13.0726   -4.6648   23.3394 O   0  0  0  0  0  0  0  0  0  0  0  0
    8.5955   -6.0705   17.3996 C   0  0  0  0  0  0  0  0  0  0  0  0
    4.6223   -8.3832   16.5030 C   0  0  0  0  0  0  0  0  0  0  0  0
   12.4690   -5.2624   19.9024 C   0  0  0  0  0  0  0  0  0  0  0  0
    3.2548   -9.9919   17.4189 C   0  0  0  0  0  0  0  0  0  0  0  0
   12.4767   -4.7393   22.1790 C   0  0  0  0  0  0  0  0  0  0  0  0
    7.8593   -5.3772   15.3569 N   0  0  0  0  0  0  0  0  0  0  0  0
    7.4412   -6.9038   16.9283 C   0  0  0  0  0  0  0  0  0  0  0  0
  1 21  4  0
  1 23  4  0
  2  5  1  0
  2 13  4  0
  2 16  4  0
  3  6  4  0
  3  7  4  0
  4 13  4  0
  4 19  4  0
  4 24  4  0
  6 23  4  0
  7 16  1  0
  7 21  4  0
  8 18  1  0
  9 20  4  0
  9 22  4  0
 10 17  1  0
 10 25  1  0
 11 16  4  0
 11 19  4  0
 12 15  4  0
 12 22  4  0
 14 24  4  0
 14 25  4  0
 15 17  4  0
 17 20  4  0
 18 23  1  0
 19 25  4  0
M  END
$$$$

 Created by Python create_sdf_string function

 25 28  0  0  0  0  0  0  0  0999 V2000
   13.1533   -5.2399   21.0682 C   0  0  0  0  0  0  0  0  0  0  0  0
   10.4729   -4.0295   17.6135 C   0  0  0  0  0  0  0  0  0  0  0  0
   10.4789   -4.3641   20.9564 C   0  0  0  0  0  0  0  0  0  0  0  0
    8.7421   -5.1412   16.3650 C   0  0  0  0  0  0  0  0  0  0  0  0
   11.4353   -2.9204   17.8044 C   0  0  0  0  0  0  0  0  0  0  0  0
   11.1529   -4.3028   22.1277 C   0  0  0  0  0  0  0  0  0  0  0  0
   11.1290   -4.8502   19.8052 C   0  0  0  0  0  0  0  0  0  0  0  0
   12.4329   -4.2159   24.4224 C   0  0  0  0  0  0  0  0  0  0  0  0
    3.4740   -9.0387   16.5022 C   0  0  0  0  0  0  0  0  0  0  0  0
    6.8384   -7.9290   17.5282 N   0  0  0  0  0  0  0  0  0  0  0  0
    9.4126   -5.9853   18.4899 C   0  0  0  0  0  0  0  0  0  0  0  0
    4.2064  -10.3242   18.3302 C   0  0  0  0  0  0  0  0  0  0  0  0
    9.6599   -4.1551   16.4796 N   0  0  0  0  0  0  0  0  0  0  0  0
    7.0644   -6.4612   15.7375 N   0  0  0  0  0  0  0  0  0  0  0  0
    5.3549   -9.6322   18.3190 C   0  0  0  0  0  0  0  0  0  0  0  0
   10.3704   -4.9638   18.6510 C   0  0  0  0  0  0  0  0  0  0  0  0
    5.5935   -8.6419   17.4234 C   0  0  0  0  0  0  0  0  0  0  0  0
   13.0726   -4.6648   23.3394 O   0  0  0  0  0  0  0  0  0  0  0  0
    8.5955   -6.0705   17.3996 C   0  0  0  0  0  0  0  0  0  0  0  0
    4.6223   -8.3832   16.5030 C   0  0  0  0  0  0  0  0  0  0  0  0
   12.4690   -5.2624   19.9024 C   0  0  0  0  0  0  0  0  0  0  0  0
    3.2548   -9.9919   17.4189 C   0  0  0  0  0  0  0  0  0  0  0  0
   12.4767   -4.7393   22.1790 C   0  0  0  0  0  0  0  0  0  0  0  0
    7.8593   -5.3772   15.3569 N   0  0  0  0  0  0  0  0  0  0  0  0
    7.4412   -6.9038   16.9283 C   0  0  0  0  0  0  0  0  0  0  0  0
  1 21  4  0
  1 23  4  0
  2  5  1  0
  2 13  4  0
  2 16  4  0
  3  6  4  0
  3  7  4  0
  4 13  4  0
  4 19  4  0
  4 24  4  0
  6 23  4  0
  7 16  1  0
  7 21  4  0
  8 18  1  0
  9 20  4  0
  9 22  4  0
 10 17  1  0
 10 25  1  0
 11 16  4  0
 11 19  4  0
 12 15  4  0
 12 22  4  0
 14 24  4  0
 14 25  4  0
 15 17  4  0
 17 20  4  0
 18 23  1  0
 19 25  4  0
M  END
$$$$

 Created by Python create_sdf_string function

 25 28  0  0  0  0  0  0  0  0999 V2000
   13.1533   -5.2399   21.0682 C   0  0  0  0  0  0  0  0  0  0  0  0
   10.4729   -4.0295   17.6135 C   0  0  0  0  0  0  0  0  0  0  0  0
   10.4789   -4.3641   20.9564 C   0  0  0  0  0  0  0  0  0  0  0  0
    8.7421   -5.1412   16.3650 C   0  0  0  0  0  0  0  0  0  0  0  0
   11.4353   -2.9204   17.8044 C   0  0  0  0  0  0  0  0  0  0  0  0
   11.1529   -4.3028   22.1277 C   0  0  0  0  0  0  0  0  0  0  0  0
   11.1290   -4.8502   19.8052 C   0  0  0  0  0  0  0  0  0  0  0  0
   12.4329   -4.2159   24.4224 C   0  0  0  0  0  0  0  0  0  0  0  0
    3.4740   -9.0387   16.5022 C   0  0  0  0  0  0  0  0  0  0  0  0
    6.8384   -7.9290   17.5282 N   0  0  0  0  0  0  0  0  0  0  0  0
    9.4126   -5.9853   18.4899 C   0  0  0  0  0  0  0  0  0  0  0  0
    4.2064  -10.3242   18.3302 C   0  0  0  0  0  0  0  0  0  0  0  0
    9.6599   -4.1551   16.4796 N   0  0  0  0  0  0  0  0  0  0  0  0
    7.0644   -6.4612   15.7375 N   0  0  0  0  0  0  0  0  0  0  0  0
    5.3549   -9.6322   18.3190 C   0  0  0  0  0  0  0  0  0  0  0  0
   10.3704   -4.9638   18.6510 C   0  0  0  0  0  0  0  0  0  0  0  0
    5.5935   -8.6419   17.4234 C   0  0  0  0  0  0  0  0  0  0  0  0
   13.0726   -4.6648   23.3394 O   0  0  0  0  0  0  0  0  0  0  0  0
    8.5955   -6.0705   17.3996 C   0  0  0  0  0  0  0  0  0  0  0  0
    4.6223   -8.3832   16.5030 C   0  0  0  0  0  0  0  0  0  0  0  0
   12.4690   -5.2624   19.9024 C   0  0  0  0  0  0  0  0  0  0  0  0
    3.2548   -9.9919   17.4189 C   0  0  0  0  0  0  0  0  0  0  0  0
   12.4767   -4.7393   22.1790 C   0  0  0  0  0  0  0  0  0  0  0  0
    7.8593   -5.3772   15.3569 N   0  0  0  0  0  0  0  0  0  0  0  0
    7.4412   -6.9038   16.9283 C   0  0  0  0  0  0  0  0  0  0  0  0
  1 21  4  0
  1 23  4  0
  2  5  1  0
  2 13  4  0
  2 16  4  0
  3  6  4  0
  3  7  4  0
  4 13  4  0
  4 19  4  0
  4 24  4  0
  6 23  4  0
  7 16  1  0
  7 21  4  0
  8 18  1  0
  9 20  4  0
  9 22  4  0
 10 17  1  0
 10 25  1  0
 11 16  4  0
 11 19  4  0
 12 15  4  0
 12 22  4  0
 14 24  4  0
 14 25  4  0
 15 17  4  0
 17 20  4  0
 18 23  1  0
 19 25  4  0
M  END
$$$$

 Created by Python create_sdf_string function

 25 28  0  0  0  0  0  0  0  0999 V2000
   13.1533   -5.2399   21.0682 C   0  0  0  0  0  0  0  0  0  0  0  0
   10.4729   -4.0295   17.6135 C   0  0  0  0  0  0  0  0  0  0  0  0
   10.4789   -4.3641   20.9564 C   0  0  0  0  0  0  0  0  0  0  0  0
    8.7421   -5.1412   16.3650 C   0  0  0  0  0  0  0  0  0  0  0  0
   11.4353   -2.9204   17.8044 C   0  0  0  0  0  0  0  0  0  0  0  0
   11.1529   -4.3028   22.1277 C   0  0  0  0  0  0  0  0  0  0  0  0
   11.1290   -4.8502   19.8052 C   0  0  0  0  0  0  0  0  0  0  0  0
   12.4329   -4.2159   24.4224 C   0  0  0  0  0  0  0  0  0  0  0  0
    3.4740   -9.0387   16.5022 C   0  0  0  0  0  0  0  0  0  0  0  0
    6.8384   -7.9290   17.5282 N   0  0  0  0  0  0  0  0  0  0  0  0
    9.4126   -5.9853   18.4899 C   0  0  0  0  0  0  0  0  0  0  0  0
    4.2064  -10.3242   18.3302 C   0  0  0  0  0  0  0  0  0  0  0  0
    9.6599   -4.1551   16.4796 N   0  0  0  0  0  0  0  0  0  0  0  0
    7.0644   -6.4612   15.7375 N   0  0  0  0  0  0  0  0  0  0  0  0
    5.3549   -9.6322   18.3190 C   0  0  0  0  0  0  0  0  0  0  0  0
   10.3704   -4.9638   18.6510 C   0  0  0  0  0  0  0  0  0  0  0  0
    5.5935   -8.6419   17.4234 C   0  0  0  0  0  0  0  0  0  0  0  0
   13.0726   -4.6648   23.3394 O   0  0  0  0  0  0  0  0  0  0  0  0
    8.5955   -6.0705   17.3996 C   0  0  0  0  0  0  0  0  0  0  0  0
    4.6223   -8.3832   16.5030 C   0  0  0  0  0  0  0  0  0  0  0  0
   12.4690   -5.2624   19.9024 C   0  0  0  0  0  0  0  0  0  0  0  0
    3.2548   -9.9919   17.4189 C   0  0  0  0  0  0  0  0  0  0  0  0
   12.4767   -4.7393   22.1790 C   0  0  0  0  0  0  0  0  0  0  0  0
    7.8593   -5.3772   15.3569 N   0  0  0  0  0  0  0  0  0  0  0  0
    7.4412   -6.9038   16.9283 C   0  0  0  0  0  0  0  0  0  0  0  0
  1 21  4  0
  1 23  4  0
  2  5  1  0
  2 13  4  0
  2 16  4  0
  3  6  4  0
  3  7  4  0
  4 13  4  0
  4 19  4  0
  4 24  4  0
  6 23  4  0
  7 16  1  0
  7 21  4  0
  8 18  1  0
  9 20  4  0
  9 22  4  0
 10 17  1  0
 10 25  1  0
 11 16  4  0
 11 19  4  0
 12 15  4  0
 12 22  4  0
 14 24  4  0
 14 25  4  0
 15 17  4  0
 17 20  4  0
 18 23  1  0
 19 25  4  0
M  END
$$$$

 Created by Python create_sdf_string function

 25 28  0  0  0  0  0  0  0  0999 V2000
   13.1533   -5.2399   21.0682 C   0  0  0  0  0  0  0  0  0  0  0  0
   10.4729   -4.0295   17.6135 C   0  0  0  0  0  0  0  0  0  0  0  0
   10.4789   -4.3641   20.9564 C   0  0  0  0  0  0  0  0  0  0  0  0
    8.7421   -5.1412   16.3650 C   0  0  0  0  0  0  0  0  0  0  0  0
   11.4353   -2.9204   17.8044 C   0  0  0  0  0  0  0  0  0  0  0  0
   11.1529   -4.3028   22.1277 C   0  0  0  0  0  0  0  0  0  0  0  0
   11.1290   -4.8502   19.8052 C   0  0  0  0  0  0  0  0  0  0  0  0
   12.4329   -4.2159   24.4224 C   0  0  0  0  0  0  0  0  0  0  0  0
    3.4740   -9.0387   16.5022 C   0  0  0  0  0  0  0  0  0  0  0  0
    6.8384   -7.9290   17.5282 N   0  0  0  0  0  0  0  0  0  0  0  0
    9.4126   -5.9853   18.4899 C   0  0  0  0  0  0  0  0  0  0  0  0
    4.2064  -10.3242   18.3302 C   0  0  0  0  0  0  0  0  0  0  0  0
    9.6599   -4.1551   16.4796 N   0  0  0  0  0  0  0  0  0  0  0  0
    7.0644   -6.4612   15.7375 N   0  0  0  0  0  0  0  0  0  0  0  0
    5.3549   -9.6322   18.3190 C   0  0  0  0  0  0  0  0  0  0  0  0
   10.3704   -4.9638   18.6510 C   0  0  0  0  0  0  0  0  0  0  0  0
    5.5935   -8.6419   17.4234 C   0  0  0  0  0  0  0  0  0  0  0  0
   13.0726   -4.6648   23.3394 O   0  0  0  0  0  0  0  0  0  0  0  0
    8.5955   -6.0705   17.3996 C   0  0  0  0  0  0  0  0  0  0  0  0
    4.6223   -8.3832   16.5030 C   0  0  0  0  0  0  0  0  0  0  0  0
   12.4690   -5.2624   19.9024 C   0  0  0  0  0  0  0  0  0  0  0  0
    3.2548   -9.9919   17.4189 C   0  0  0  0  0  0  0  0  0  0  0  0
   12.4767   -4.7393   22.1790 C   0  0  0  0  0  0  0  0  0  0  0  0
    7.8593   -5.3772   15.3569 N   0  0  0  0  0  0  0  0  0  0  0  0
    7.4412   -6.9038   16.9283 C   0  0  0  0  0  0  0  0  0  0  0  0
  1 21  4  0
  1 23  4  0
  2  5  1  0
  2 13  4  0
  2 16  4  0
  3  6  4  0
  3  7  4  0
  4 13  4  0
  4 19  4  0
  4 24  4  0
  6 23  4  0
  7 16  1  0
  7 21  4  0
  8 18  1  0
  9 20  4  0
  9 22  4  0
 10 17  1  0
 10 25  1  0
 11 16  4  0
 11 19  4  0
 12 15  4  0
 12 22  4  0
 14 24  4  0
 14 25  4  0
 15 17  4  0
 17 20  4  0
 18 23  1  0
 19 25  4  0
M  END
$$$$

 Created by Python create_sdf_string function

 25 28  0  0  0  0  0  0  0  0999 V2000
   13.1533   -5.2399   21.0682 C   0  0  0  0  0  0  0  0  0  0  0  0
   10.4729   -4.0295   17.6135 C   0  0  0  0  0  0  0  0  0  0  0  0
   10.4789   -4.3641   20.9564 C   0  0  0  0  0  0  0  0  0  0  0  0
    8.7421   -5.1412   16.3650 C   0  0  0  0  0  0  0  0  0  0  0  0
   11.4353   -2.9204   17.8044 C   0  0  0  0  0  0  0  0  0  0  0  0
   11.1529   -4.3028   22.1277 C   0  0  0  0  0  0  0  0  0  0  0  0
   11.1290   -4.8502   19.8052 C   0  0  0  0  0  0  0  0  0  0  0  0
   12.4329   -4.2159   24.4224 C   0  0  0  0  0  0  0  0  0  0  0  0
    3.4740   -9.0387   16.5022 C   0  0  0  0  0  0  0  0  0  0  0  0
    6.8384   -7.9290   17.5282 N   0  0  0  0  0  0  0  0  0  0  0  0
    9.4126   -5.9853   18.4899 C   0  0  0  0  0  0  0  0  0  0  0  0
    4.2064  -10.3242   18.3302 C   0  0  0  0  0  0  0  0  0  0  0  0
    9.6599   -4.1551   16.4796 N   0  0  0  0  0  0  0  0  0  0  0  0
    7.0644   -6.4612   15.7375 N   0  0  0  0  0  0  0  0  0  0  0  0
    5.3549   -9.6322   18.3190 C   0  0  0  0  0  0  0  0  0  0  0  0
   10.3704   -4.9638   18.6510 C   0  0  0  0  0  0  0  0  0  0  0  0
    5.5935   -8.6419   17.4234 C   0  0  0  0  0  0  0  0  0  0  0  0
   13.0726   -4.6648   23.3394 O   0  0  0  0  0  0  0  0  0  0  0  0
    8.5955   -6.0705   17.3996 C   0  0  0  0  0  0  0  0  0  0  0  0
    4.6223   -8.3832   16.5030 C   0  0  0  0  0  0  0  0  0  0  0  0
   12.4690   -5.2624   19.9024 C   0  0  0  0  0  0  0  0  0  0  0  0
    3.2548   -9.9919   17.4189 C   0  0  0  0  0  0  0  0  0  0  0  0
   12.4767   -4.7393   22.1790 C   0  0  0  0  0  0  0  0  0  0  0  0
    7.8593   -5.3772   15.3569 N   0  0  0  0  0  0  0  0  0  0  0  0
    7.4412   -6.9038   16.9283 C   0  0  0  0  0  0  0  0  0  0  0  0
  1 21  4  0
  1 23  4  0
  2  5  1  0
  2 13  4  0
  2 16  4  0
  3  6  4  0
  3  7  4  0
  4 13  4  0
  4 19  4  0
  4 24  4  0
  6 23  4  0
  7 16  1  0
  7 21  4  0
  8 18  1  0
  9 20  4  0
  9 22  4  0
 10 17  1  0
 10 25  1  0
 11 16  4  0
 11 19  4  0
 12 15  4  0
 12 22  4  0
 14 24  4  0
 14 25  4  0
 15 17  4  0
 17 20  4  0
 18 23  1  0
 19 25  4  0
M  END
$$$$

 Created by Python create_sdf_string function

 25 28  0  0  0  0  0  0  0  0999 V2000
   13.1533   -5.2399   21.0682 C   0  0  0  0  0  0  0  0  0  0  0  0
   10.4729   -4.0295   17.6135 C   0  0  0  0  0  0  0  0  0  0  0  0
   10.4789   -4.3641   20.9564 C   0  0  0  0  0  0  0  0  0  0  0  0
    8.7421   -5.1412   16.3650 C   0  0  0  0  0  0  0  0  0  0  0  0
   11.4353   -2.9204   17.8044 C   0  0  0  0  0  0  0  0  0  0  0  0
   11.1529   -4.3028   22.1277 C   0  0  0  0  0  0  0  0  0  0  0  0
   11.1290   -4.8502   19.8052 C   0  0  0  0  0  0  0  0  0  0  0  0
   12.4329   -4.2159   24.4224 C   0  0  0  0  0  0  0  0  0  0  0  0
    3.4740   -9.0387   16.5022 C   0  0  0  0  0  0  0  0  0  0  0  0
    6.8384   -7.9290   17.5282 N   0  0  0  0  0  0  0  0  0  0  0  0
    9.4126   -5.9853   18.4899 C   0  0  0  0  0  0  0  0  0  0  0  0
    4.2064  -10.3242   18.3302 C   0  0  0  0  0  0  0  0  0  0  0  0
    9.6599   -4.1551   16.4796 N   0  0  0  0  0  0  0  0  0  0  0  0
    7.0644   -6.4612   15.7375 N   0  0  0  0  0  0  0  0  0  0  0  0
    5.3549   -9.6322   18.3190 C   0  0  0  0  0  0  0  0  0  0  0  0
   10.3704   -4.9638   18.6510 C   0  0  0  0  0  0  0  0  0  0  0  0
    5.5935   -8.6419   17.4234 C   0  0  0  0  0  0  0  0  0  0  0  0
   13.0726   -4.6648   23.3394 O   0  0  0  0  0  0  0  0  0  0  0  0
    8.5955   -6.0705   17.3996 C   0  0  0  0  0  0  0  0  0  0  0  0
    4.6223   -8.3832   16.5030 C   0  0  0  0  0  0  0  0  0  0  0  0
   12.4690   -5.2624   19.9024 C   0  0  0  0  0  0  0  0  0  0  0  0
    3.2548   -9.9919   17.4189 C   0  0  0  0  0  0  0  0  0  0  0  0
   12.4767   -4.7393   22.1790 C   0  0  0  0  0  0  0  0  0  0  0  0
    7.8593   -5.3772   15.3569 N   0  0  0  0  0  0  0  0  0  0  0  0
    7.4412   -6.9038   16.9283 C   0  0  0  0  0  0  0  0  0  0  0  0
  1 21  4  0
  1 23  4  0
  2  5  1  0
  2 13  4  0
  2 16  4  0
  3  6  4  0
  3  7  4  0
  4 13  4  0
  4 19  4  0
  4 24  4  0
  6 23  4  0
  7 16  1  0
  7 21  4  0
  8 18  1  0
  9 20  4  0
  9 22  4  0
 10 17  1  0
 10 25  1  0
 11 16  4  0
 11 19  4  0
 12 15  4  0
 12 22  4  0
 14 24  4  0
 14 25  4  0
 15 17  4  0
 17 20  4  0
 18 23  1  0
 19 25  4  0
M  END
$$$$

 Created by Python create_sdf_string function

 25 28  0  0  0  0  0  0  0  0999 V2000
   13.1533   -5.2399   21.0682 C   0  0  0  0  0  0  0  0  0  0  0  0
   10.4729   -4.0295   17.6135 C   0  0  0  0  0  0  0  0  0  0  0  0
   10.4789   -4.3641   20.9564 C   0  0  0  0  0  0  0  0  0  0  0  0
    8.7421   -5.1412   16.3650 C   0  0  0  0  0  0  0  0  0  0  0  0
   11.4353   -2.9204   17.8044 C   0  0  0  0  0  0  0  0  0  0  0  0
   11.1529   -4.3028   22.1277 C   0  0  0  0  0  0  0  0  0  0  0  0
   11.1290   -4.8502   19.8052 C   0  0  0  0  0  0  0  0  0  0  0  0
   12.4329   -4.2159   24.4224 C   0  0  0  0  0  0  0  0  0  0  0  0
    3.4740   -9.0387   16.5022 C   0  0  0  0  0  0  0  0  0  0  0  0
    6.8384   -7.9290   17.5282 N   0  0  0  0  0  0  0  0  0  0  0  0
    9.4126   -5.9853   18.4899 C   0  0  0  0  0  0  0  0  0  0  0  0
    4.2064  -10.3242   18.3302 C   0  0  0  0  0  0  0  0  0  0  0  0
    9.6599   -4.1551   16.4796 N   0  0  0  0  0  0  0  0  0  0  0  0
    7.0644   -6.4612   15.7375 N   0  0  0  0  0  0  0  0  0  0  0  0
    5.3549   -9.6322   18.3190 C   0  0  0  0  0  0  0  0  0  0  0  0
   10.3704   -4.9638   18.6510 C   0  0  0  0  0  0  0  0  0  0  0  0
    5.5935   -8.6419   17.4234 C   0  0  0  0  0  0  0  0  0  0  0  0
   13.0726   -4.6648   23.3394 O   0  0  0  0  0  0  0  0  0  0  0  0
    8.5955   -6.0705   17.3996 C   0  0  0  0  0  0  0  0  0  0  0  0
    4.6223   -8.3832   16.5030 C   0  0  0  0  0  0  0  0  0  0  0  0
   12.4690   -5.2624   19.9024 C   0  0  0  0  0  0  0  0  0  0  0  0
    3.2548   -9.9919   17.4189 C   0  0  0  0  0  0  0  0  0  0  0  0
   12.4767   -4.7393   22.1790 C   0  0  0  0  0  0  0  0  0  0  0  0
    7.8593   -5.3772   15.3569 N   0  0  0  0  0  0  0  0  0  0  0  0
    7.4412   -6.9038   16.9283 C   0  0  0  0  0  0  0  0  0  0  0  0
  1 21  4  0
  1 23  4  0
  2  5  1  0
  2 13  4  0
  2 16  4  0
  3  6  4  0
  3  7  4  0
  4 13  4  0
  4 19  4  0
  4 24  4  0
  6 23  4  0
  7 16  1  0
  7 21  4  0
  8 18  1  0
  9 20  4  0
  9 22  4  0
 10 17  1  0
 10 25  1  0
 11 16  4  0
 11 19  4  0
 12 15  4  0
 12 22  4  0
 14 24  4  0
 14 25  4  0
 15 17  4  0
 17 20  4  0
 18 23  1  0
 19 25  4  0
M  END
$$$$

 Created by Python create_sdf_string function

 25 28  0  0  0  0  0  0  0  0999 V2000
   13.1533   -5.2399   21.0682 C   0  0  0  0  0  0  0  0  0  0  0  0
   10.4729   -4.0295   17.6135 C   0  0  0  0  0  0  0  0  0  0  0  0
   10.4789   -4.3641   20.9564 C   0  0  0  0  0  0  0  0  0  0  0  0
    8.7421   -5.1412   16.3650 C   0  0  0  0  0  0  0  0  0  0  0  0
   11.4353   -2.9204   17.8044 C   0  0  0  0  0  0  0  0  0  0  0  0
   11.1529   -4.3028   22.1277 C   0  0  0  0  0  0  0  0  0  0  0  0
   11.1290   -4.8502   19.8052 C   0  0  0  0  0  0  0  0  0  0  0  0
   12.4329   -4.2159   24.4224 C   0  0  0  0  0  0  0  0  0  0  0  0
    3.4740   -9.0387   16.5022 C   0  0  0  0  0  0  0  0  0  0  0  0
    6.8384   -7.9290   17.5282 N   0  0  0  0  0  0  0  0  0  0  0  0
    9.4126   -5.9853   18.4899 C   0  0  0  0  0  0  0  0  0  0  0  0
    4.2064  -10.3242   18.3302 C   0  0  0  0  0  0  0  0  0  0  0  0
    9.6599   -4.1551   16.4796 N   0  0  0  0  0  0  0  0  0  0  0  0
    7.0644   -6.4612   15.7375 N   0  0  0  0  0  0  0  0  0  0  0  0
    5.3549   -9.6322   18.3190 C   0  0  0  0  0  0  0  0  0  0  0  0
   10.3704   -4.9638   18.6510 C   0  0  0  0  0  0  0  0  0  0  0  0
    5.5935   -8.6419   17.4234 C   0  0  0  0  0  0  0  0  0  0  0  0
   13.0726   -4.6648   23.3394 O   0  0  0  0  0  0  0  0  0  0  0  0
    8.5955   -6.0705   17.3996 C   0  0  0  0  0  0  0  0  0  0  0  0
    4.6223   -8.3832   16.5030 C   0  0  0  0  0  0  0  0  0  0  0  0
   12.4690   -5.2624   19.9024 C   0  0  0  0  0  0  0  0  0  0  0  0
    3.2548   -9.9919   17.4189 C   0  0  0  0  0  0  0  0  0  0  0  0
   12.4767   -4.7393   22.1790 C   0  0  0  0  0  0  0  0  0  0  0  0
    7.8593   -5.3772   15.3569 N   0  0  0  0  0  0  0  0  0  0  0  0
    7.4412   -6.9038   16.9283 C   0  0  0  0  0  0  0  0  0  0  0  0
  1 21  4  0
  1 23  4  0
  2  5  1  0
  2 13  4  0
  2 16  4  0
  3  6  4  0
  3  7  4  0
  4 13  4  0
  4 19  4  0
  4 24  4  0
  6 23  4  0
  7 16  1  0
  7 21  4  0
  8 18  1  0
  9 20  4  0
  9 22  4  0
 10 17  1  0
 10 25  1  0
 11 16  4  0
 11 19  4  0
 12 15  4  0
 12 22  4  0
 14 24  4  0
 14 25  4  0
 15 17  4  0
 17 20  4  0
 18 23  1  0
 19 25  4  0
M  END
$$$$

 Created by Python create_sdf_string function

 25 28  0  0  0  0  0  0  0  0999 V2000
   13.1533   -5.2399   21.0682 C   0  0  0  0  0  0  0  0  0  0  0  0
   10.4729   -4.0295   17.6135 C   0  0  0  0  0  0  0  0  0  0  0  0
   10.4789   -4.3641   20.9564 C   0  0  0  0  0  0  0  0  0  0  0  0
    8.7421   -5.1412   16.3650 C   0  0  0  0  0  0  0  0  0  0  0  0
   11.4353   -2.9204   17.8044 C   0  0  0  0  0  0  0  0  0  0  0  0
   11.1529   -4.3028   22.1277 C   0  0  0  0  0  0  0  0  0  0  0  0
   11.1290   -4.8502   19.8052 C   0  0  0  0  0  0  0  0  0  0  0  0
   12.4329   -4.2159   24.4224 C   0  0  0  0  0  0  0  0  0  0  0  0
    3.4740   -9.0387   16.5022 C   0  0  0  0  0  0  0  0  0  0  0  0
    6.8384   -7.9290   17.5282 N   0  0  0  0  0  0  0  0  0  0  0  0
    9.4126   -5.9853   18.4899 C   0  0  0  0  0  0  0  0  0  0  0  0
    4.2064  -10.3242   18.3302 C   0  0  0  0  0  0  0  0  0  0  0  0
    9.6599   -4.1551   16.4796 N   0  0  0  0  0  0  0  0  0  0  0  0
    7.0644   -6.4612   15.7375 N   0  0  0  0  0  0  0  0  0  0  0  0
    5.3549   -9.6322   18.3190 C   0  0  0  0  0  0  0  0  0  0  0  0
   10.3704   -4.9638   18.6510 C   0  0  0  0  0  0  0  0  0  0  0  0
    5.5935   -8.6419   17.4234 C   0  0  0  0  0  0  0  0  0  0  0  0
   13.0726   -4.6648   23.3394 O   0  0  0  0  0  0  0  0  0  0  0  0
    8.5955   -6.0705   17.3996 C   0  0  0  0  0  0  0  0  0  0  0  0
    4.6223   -8.3832   16.5030 C   0  0  0  0  0  0  0  0  0  0  0  0
   12.4690   -5.2624   19.9024 C   0  0  0  0  0  0  0  0  0  0  0  0
    3.2548   -9.9919   17.4189 C   0  0  0  0  0  0  0  0  0  0  0  0
   12.4767   -4.7393   22.1790 C   0  0  0  0  0  0  0  0  0  0  0  0
    7.8593   -5.3772   15.3569 N   0  0  0  0  0  0  0  0  0  0  0  0
    7.4412   -6.9038   16.9283 C   0  0  0  0  0  0  0  0  0  0  0  0
  1 21  4  0
  1 23  4  0
  2  5  1  0
  2 13  4  0
  2 16  4  0
  3  6  4  0
  3  7  4  0
  4 13  4  0
  4 19  4  0
  4 24  4  0
  6 23  4  0
  7 16  1  0
  7 21  4  0
  8 18  1  0
  9 20  4  0
  9 22  4  0
 10 17  1  0
 10 25  1  0
 11 16  4  0
 11 19  4  0
 12 15  4  0
 12 22  4  0
 14 24  4  0
 14 25  4  0
 15 17  4  0
 17 20  4  0
 18 23  1  0
 19 25  4  0
M  END
$$$$

 Created by Python create_sdf_string function

 25 28  0  0  0  0  0  0  0  0999 V2000
   13.1533   -5.2399   21.0682 C   0  0  0  0  0  0  0  0  0  0  0  0
   10.4729   -4.0295   17.6135 C   0  0  0  0  0  0  0  0  0  0  0  0
   10.4789   -4.3641   20.9564 C   0  0  0  0  0  0  0  0  0  0  0  0
    8.7421   -5.1412   16.3650 C   0  0  0  0  0  0  0  0  0  0  0  0
   11.4353   -2.9204   17.8044 C   0  0  0  0  0  0  0  0  0  0  0  0
   11.1529   -4.3028   22.1277 C   0  0  0  0  0  0  0  0  0  0  0  0
   11.1290   -4.8502   19.8052 C   0  0  0  0  0  0  0  0  0  0  0  0
   12.4329   -4.2159   24.4224 C   0  0  0  0  0  0  0  0  0  0  0  0
    3.4740   -9.0387   16.5022 C   0  0  0  0  0  0  0  0  0  0  0  0
    6.8384   -7.9290   17.5282 N   0  0  0  0  0  0  0  0  0  0  0  0
    9.4126   -5.9853   18.4899 C   0  0  0  0  0  0  0  0  0  0  0  0
    4.2064  -10.3242   18.3302 C   0  0  0  0  0  0  0  0  0  0  0  0
    9.6599   -4.1551   16.4796 N   0  0  0  0  0  0  0  0  0  0  0  0
    7.0644   -6.4612   15.7375 N   0  0  0  0  0  0  0  0  0  0  0  0
    5.3549   -9.6322   18.3190 C   0  0  0  0  0  0  0  0  0  0  0  0
   10.3704   -4.9638   18.6510 C   0  0  0  0  0  0  0  0  0  0  0  0
    5.5935   -8.6419   17.4234 C   0  0  0  0  0  0  0  0  0  0  0  0
   13.0726   -4.6648   23.3394 O   0  0  0  0  0  0  0  0  0  0  0  0
    8.5955   -6.0705   17.3996 C   0  0  0  0  0  0  0  0  0  0  0  0
    4.6223   -8.3832   16.5030 C   0  0  0  0  0  0  0  0  0  0  0  0
   12.4690   -5.2624   19.9024 C   0  0  0  0  0  0  0  0  0  0  0  0
    3.2548   -9.9919   17.4189 C   0  0  0  0  0  0  0  0  0  0  0  0
   12.4767   -4.7393   22.1790 C   0  0  0  0  0  0  0  0  0  0  0  0
    7.8593   -5.3772   15.3569 N   0  0  0  0  0  0  0  0  0  0  0  0
    7.4412   -6.9038   16.9283 C   0  0  0  0  0  0  0  0  0  0  0  0
  1 21  4  0
  1 23  4  0
  2  5  1  0
  2 13  4  0
  2 16  4  0
  3  6  4  0
  3  7  4  0
  4 13  4  0
  4 19  4  0
  4 24  4  0
  6 23  4  0
  7 16  1  0
  7 21  4  0
  8 18  1  0
  9 20  4  0
  9 22  4  0
 10 17  1  0
 10 25  1  0
 11 16  4  0
 11 19  4  0
 12 15  4  0
 12 22  4  0
 14 24  4  0
 14 25  4  0
 15 17  4  0
 17 20  4  0
 18 23  1  0
 19 25  4  0
M  END
$$$$

 Created by Python create_sdf_string function

 25 28  0  0  0  0  0  0  0  0999 V2000
   13.1533   -5.2399   21.0682 C   0  0  0  0  0  0  0  0  0  0  0  0
   10.4729   -4.0295   17.6135 C   0  0  0  0  0  0  0  0  0  0  0  0
   10.4789   -4.3641   20.9564 C   0  0  0  0  0  0  0  0  0  0  0  0
    8.7421   -5.1412   16.3650 C   0  0  0  0  0  0  0  0  0  0  0  0
   11.4353   -2.9204   17.8044 C   0  0  0  0  0  0  0  0  0  0  0  0
   11.1529   -4.3028   22.1277 C   0  0  0  0  0  0  0  0  0  0  0  0
   11.1290   -4.8502   19.8052 C   0  0  0  0  0  0  0  0  0  0  0  0
   12.4329   -4.2159   24.4224 C   0  0  0  0  0  0  0  0  0  0  0  0
    3.4740   -9.0387   16.5022 C   0  0  0  0  0  0  0  0  0  0  0  0
    6.8384   -7.9290   17.5282 N   0  0  0  0  0  0  0  0  0  0  0  0
    9.4126   -5.9853   18.4899 C   0  0  0  0  0  0  0  0  0  0  0  0
    4.2064  -10.3242   18.3302 C   0  0  0  0  0  0  0  0  0  0  0  0
    9.6599   -4.1551   16.4796 N   0  0  0  0  0  0  0  0  0  0  0  0
    7.0644   -6.4612   15.7375 N   0  0  0  0  0  0  0  0  0  0  0  0
    5.3549   -9.6322   18.3190 C   0  0  0  0  0  0  0  0  0  0  0  0
   10.3704   -4.9638   18.6510 C   0  0  0  0  0  0  0  0  0  0  0  0
    5.5935   -8.6419   17.4234 C   0  0  0  0  0  0  0  0  0  0  0  0
   13.0726   -4.6648   23.3394 O   0  0  0  0  0  0  0  0  0  0  0  0
    8.5955   -6.0705   17.3996 C   0  0  0  0  0  0  0  0  0  0  0  0
    4.6223   -8.3832   16.5030 C   0  0  0  0  0  0  0  0  0  0  0  0
   12.4690   -5.2624   19.9024 C   0  0  0  0  0  0  0  0  0  0  0  0
    3.2548   -9.9919   17.4189 C   0  0  0  0  0  0  0  0  0  0  0  0
   12.4767   -4.7393   22.1790 C   0  0  0  0  0  0  0  0  0  0  0  0
    7.8593   -5.3772   15.3569 N   0  0  0  0  0  0  0  0  0  0  0  0
    7.4412   -6.9038   16.9283 C   0  0  0  0  0  0  0  0  0  0  0  0
  1 21  4  0
  1 23  4  0
  2  5  1  0
  2 13  4  0
  2 16  4  0
  3  6  4  0
  3  7  4  0
  4 13  4  0
  4 19  4  0
  4 24  4  0
  6 23  4  0
  7 16  1  0
  7 21  4  0
  8 18  1  0
  9 20  4  0
  9 22  4  0
 10 17  1  0
 10 25  1  0
 11 16  4  0
 11 19  4  0
 12 15  4  0
 12 22  4  0
 14 24  4  0
 14 25  4  0
 15 17  4  0
 17 20  4  0
 18 23  1  0
 19 25  4  0
M  END
$$$$

 Created by Python create_sdf_string function

 25 28  0  0  0  0  0  0  0  0999 V2000
   13.1533   -5.2399   21.0682 C   0  0  0  0  0  0  0  0  0  0  0  0
   10.4729   -4.0295   17.6135 C   0  0  0  0  0  0  0  0  0  0  0  0
   10.4789   -4.3641   20.9564 C   0  0  0  0  0  0  0  0  0  0  0  0
    8.7421   -5.1412   16.3650 C   0  0  0  0  0  0  0  0  0  0  0  0
   11.4353   -2.9204   17.8044 C   0  0  0  0  0  0  0  0  0  0  0  0
   11.1529   -4.3028   22.1277 C   0  0  0  0  0  0  0  0  0  0  0  0
   11.1290   -4.8502   19.8052 C   0  0  0  0  0  0  0  0  0  0  0  0
   12.4329   -4.2159   24.4224 C   0  0  0  0  0  0  0  0  0  0  0  0
    3.4740   -9.0387   16.5022 C   0  0  0  0  0  0  0  0  0  0  0  0
    6.8384   -7.9290   17.5282 N   0  0  0  0  0  0  0  0  0  0  0  0
    9.4126   -5.9853   18.4899 C   0  0  0  0  0  0  0  0  0  0  0  0
    4.2064  -10.3242   18.3302 C   0  0  0  0  0  0  0  0  0  0  0  0
    9.6599   -4.1551   16.4796 N   0  0  0  0  0  0  0  0  0  0  0  0
    7.0644   -6.4612   15.7375 N   0  0  0  0  0  0  0  0  0  0  0  0
    5.3549   -9.6322   18.3190 C   0  0  0  0  0  0  0  0  0  0  0  0
   10.3704   -4.9638   18.6510 C   0  0  0  0  0  0  0  0  0  0  0  0
    5.5935   -8.6419   17.4234 C   0  0  0  0  0  0  0  0  0  0  0  0
   13.0726   -4.6648   23.3394 O   0  0  0  0  0  0  0  0  0  0  0  0
    8.5955   -6.0705   17.3996 C   0  0  0  0  0  0  0  0  0  0  0  0
    4.6223   -8.3832   16.5030 C   0  0  0  0  0  0  0  0  0  0  0  0
   12.4690   -5.2624   19.9024 C   0  0  0  0  0  0  0  0  0  0  0  0
    3.2548   -9.9919   17.4189 C   0  0  0  0  0  0  0  0  0  0  0  0
   12.4767   -4.7393   22.1790 C   0  0  0  0  0  0  0  0  0  0  0  0
    7.8593   -5.3772   15.3569 N   0  0  0  0  0  0  0  0  0  0  0  0
    7.4412   -6.9038   16.9283 C   0  0  0  0  0  0  0  0  0  0  0  0
  1 21  4  0
  1 23  4  0
  2  5  1  0
  2 13  4  0
  2 16  4  0
  3  6  4  0
  3  7  4  0
  4 13  4  0
  4 19  4  0
  4 24  4  0
  6 23  4  0
  7 16  1  0
  7 21  4  0
  8 18  1  0
  9 20  4  0
  9 22  4  0
 10 17  1  0
 10 25  1  0
 11 16  4  0
 11 19  4  0
 12 15  4  0
 12 22  4  0
 14 24  4  0
 14 25  4  0
 15 17  4  0
 17 20  4  0
 18 23  1  0
 19 25  4  0
M  END
$$$$

 Created by Python create_sdf_string function

 25 28  0  0  0  0  0  0  0  0999 V2000
   13.1533   -5.2399   21.0682 C   0  0  0  0  0  0  0  0  0  0  0  0
   10.4729   -4.0295   17.6135 C   0  0  0  0  0  0  0  0  0  0  0  0
   10.4789   -4.3641   20.9564 C   0  0  0  0  0  0  0  0  0  0  0  0
    8.7421   -5.1412   16.3650 C   0  0  0  0  0  0  0  0  0  0  0  0
   11.4353   -2.9204   17.8044 C   0  0  0  0  0  0  0  0  0  0  0  0
   11.1529   -4.3028   22.1277 C   0  0  0  0  0  0  0  0  0  0  0  0
   11.1290   -4.8502   19.8052 C   0  0  0  0  0  0  0  0  0  0  0  0
   12.4329   -4.2159   24.4224 C   0  0  0  0  0  0  0  0  0  0  0  0
    3.4740   -9.0387   16.5022 C   0  0  0  0  0  0  0  0  0  0  0  0
    6.8384   -7.9290   17.5282 N   0  0  0  0  0  0  0  0  0  0  0  0
    9.4126   -5.9853   18.4899 C   0  0  0  0  0  0  0  0  0  0  0  0
    4.2064  -10.3242   18.3302 C   0  0  0  0  0  0  0  0  0  0  0  0
    9.6599   -4.1551   16.4796 N   0  0  0  0  0  0  0  0  0  0  0  0
    7.0644   -6.4612   15.7375 N   0  0  0  0  0  0  0  0  0  0  0  0
    5.3549   -9.6322   18.3190 C   0  0  0  0  0  0  0  0  0  0  0  0
   10.3704   -4.9638   18.6510 C   0  0  0  0  0  0  0  0  0  0  0  0
    5.5935   -8.6419   17.4234 C   0  0  0  0  0  0  0  0  0  0  0  0
   13.0726   -4.6648   23.3394 O   0  0  0  0  0  0  0  0  0  0  0  0
    8.5955   -6.0705   17.3996 C   0  0  0  0  0  0  0  0  0  0  0  0
    4.6223   -8.3832   16.5030 C   0  0  0  0  0  0  0  0  0  0  0  0
   12.4690   -5.2624   19.9024 C   0  0  0  0  0  0  0  0  0  0  0  0
    3.2548   -9.9919   17.4189 C   0  0  0  0  0  0  0  0  0  0  0  0
   12.4767   -4.7393   22.1790 C   0  0  0  0  0  0  0  0  0  0  0  0
    7.8593   -5.3772   15.3569 N   0  0  0  0  0  0  0  0  0  0  0  0
    7.4412   -6.9038   16.9283 C   0  0  0  0  0  0  0  0  0  0  0  0
  1 21  4  0
  1 23  4  0
  2  5  1  0
  2 13  4  0
  2 16  4  0
  3  6  4  0
  3  7  4  0
  4 13  4  0
  4 19  4  0
  4 24  4  0
  6 23  4  0
  7 16  1  0
  7 21  4  0
  8 18  1  0
  9 20  4  0
  9 22  4  0
 10 17  1  0
 10 25  1  0
 11 16  4  0
 11 19  4  0
 12 15  4  0
 12 22  4  0
 14 24  4  0
 14 25  4  0
 15 17  4  0
 17 20  4  0
 18 23  1  0
 19 25  4  0
M  END
$$$$

 Created by Python create_sdf_string function

 25 28  0  0  0  0  0  0  0  0999 V2000
   13.1533   -5.2399   21.0682 C   0  0  0  0  0  0  0  0  0  0  0  0
   10.4729   -4.0295   17.6135 C   0  0  0  0  0  0  0  0  0  0  0  0
   10.4789   -4.3641   20.9564 C   0  0  0  0  0  0  0  0  0  0  0  0
    8.7421   -5.1412   16.3650 C   0  0  0  0  0  0  0  0  0  0  0  0
   11.4353   -2.9204   17.8044 C   0  0  0  0  0  0  0  0  0  0  0  0
   11.1529   -4.3028   22.1277 C   0  0  0  0  0  0  0  0  0  0  0  0
   11.1290   -4.8502   19.8052 C   0  0  0  0  0  0  0  0  0  0  0  0
   12.4329   -4.2159   24.4224 C   0  0  0  0  0  0  0  0  0  0  0  0
    3.4740   -9.0387   16.5022 C   0  0  0  0  0  0  0  0  0  0  0  0
    6.8384   -7.9290   17.5282 N   0  0  0  0  0  0  0  0  0  0  0  0
    9.4126   -5.9853   18.4899 C   0  0  0  0  0  0  0  0  0  0  0  0
    4.2064  -10.3242   18.3302 C   0  0  0  0  0  0  0  0  0  0  0  0
    9.6599   -4.1551   16.4796 N   0  0  0  0  0  0  0  0  0  0  0  0
    7.0644   -6.4612   15.7375 N   0  0  0  0  0  0  0  0  0  0  0  0
    5.3549   -9.6322   18.3190 C   0  0  0  0  0  0  0  0  0  0  0  0
   10.3704   -4.9638   18.6510 C   0  0  0  0  0  0  0  0  0  0  0  0
    5.5935   -8.6419   17.4234 C   0  0  0  0  0  0  0  0  0  0  0  0
   13.0726   -4.6648   23.3394 O   0  0  0  0  0  0  0  0  0  0  0  0
    8.5955   -6.0705   17.3996 C   0  0  0  0  0  0  0  0  0  0  0  0
    4.6223   -8.3832   16.5030 C   0  0  0  0  0  0  0  0  0  0  0  0
   12.4690   -5.2624   19.9024 C   0  0  0  0  0  0  0  0  0  0  0  0
    3.2548   -9.9919   17.4189 C   0  0  0  0  0  0  0  0  0  0  0  0
   12.4767   -4.7393   22.1790 C   0  0  0  0  0  0  0  0  0  0  0  0
    7.8593   -5.3772   15.3569 N   0  0  0  0  0  0  0  0  0  0  0  0
    7.4412   -6.9038   16.9283 C   0  0  0  0  0  0  0  0  0  0  0  0
  1 21  4  0
  1 23  4  0
  2  5  1  0
  2 13  4  0
  2 16  4  0
  3  6  4  0
  3  7  4  0
  4 13  4  0
  4 19  4  0
  4 24  4  0
  6 23  4  0
  7 16  1  0
  7 21  4  0
  8 18  1  0
  9 20  4  0
  9 22  4  0
 10 17  1  0
 10 25  1  0
 11 16  4  0
 11 19  4  0
 12 15  4  0
 12 22  4  0
 14 24  4  0
 14 25  4  0
 15 17  4  0
 17 20  4  0
 18 23  1  0
 19 25  4  0
M  END
$$$$

 Created by Python create_sdf_string function

 25 28  0  0  0  0  0  0  0  0999 V2000
   13.1533   -5.2399   21.0682 C   0  0  0  0  0  0  0  0  0  0  0  0
   10.4729   -4.0295   17.6135 C   0  0  0  0  0  0  0  0  0  0  0  0
   10.4789   -4.3641   20.9564 C   0  0  0  0  0  0  0  0  0  0  0  0
    8.7421   -5.1412   16.3650 C   0  0  0  0  0  0  0  0  0  0  0  0
   11.4353   -2.9204   17.8044 C   0  0  0  0  0  0  0  0  0  0  0  0
   11.1529   -4.3028   22.1277 C   0  0  0  0  0  0  0  0  0  0  0  0
   11.1290   -4.8502   19.8052 C   0  0  0  0  0  0  0  0  0  0  0  0
   12.4329   -4.2159   24.4224 C   0  0  0  0  0  0  0  0  0  0  0  0
    3.4740   -9.0387   16.5022 C   0  0  0  0  0  0  0  0  0  0  0  0
    6.8384   -7.9290   17.5282 N   0  0  0  0  0  0  0  0  0  0  0  0
    9.4126   -5.9853   18.4899 C   0  0  0  0  0  0  0  0  0  0  0  0
    4.2064  -10.3242   18.3302 C   0  0  0  0  0  0  0  0  0  0  0  0
    9.6599   -4.1551   16.4796 N   0  0  0  0  0  0  0  0  0  0  0  0
    7.0644   -6.4612   15.7375 N   0  0  0  0  0  0  0  0  0  0  0  0
    5.3549   -9.6322   18.3190 C   0  0  0  0  0  0  0  0  0  0  0  0
   10.3704   -4.9638   18.6510 C   0  0  0  0  0  0  0  0  0  0  0  0
    5.5935   -8.6419   17.4234 C   0  0  0  0  0  0  0  0  0  0  0  0
   13.0726   -4.6648   23.3394 O   0  0  0  0  0  0  0  0  0  0  0  0
    8.5955   -6.0705   17.3996 C   0  0  0  0  0  0  0  0  0  0  0  0
    4.6223   -8.3832   16.5030 C   0  0  0  0  0  0  0  0  0  0  0  0
   12.4690   -5.2624   19.9024 C   0  0  0  0  0  0  0  0  0  0  0  0
    3.2548   -9.9919   17.4189 C   0  0  0  0  0  0  0  0  0  0  0  0
   12.4767   -4.7393   22.1790 C   0  0  0  0  0  0  0  0  0  0  0  0
    7.8593   -5.3772   15.3569 N   0  0  0  0  0  0  0  0  0  0  0  0
    7.4412   -6.9038   16.9283 C   0  0  0  0  0  0  0  0  0  0  0  0
  1 21  4  0
  1 23  4  0
  2  5  1  0
  2 13  4  0
  2 16  4  0
  3  6  4  0
  3  7  4  0
  4 13  4  0
  4 19  4  0
  4 24  4  0
  6 23  4  0
  7 16  1  0
  7 21  4  0
  8 18  1  0
  9 20  4  0
  9 22  4  0
 10 17  1  0
 10 25  1  0
 11 16  4  0
 11 19  4  0
 12 15  4  0
 12 22  4  0
 14 24  4  0
 14 25  4  0
 15 17  4  0
 17 20  4  0
 18 23  1  0
 19 25  4  0
M  END
$$$$

 Created by Python create_sdf_string function

 25 28  0  0  0  0  0  0  0  0999 V2000
   13.1533   -5.2399   21.0682 C   0  0  0  0  0  0  0  0  0  0  0  0
   10.4729   -4.0295   17.6135 C   0  0  0  0  0  0  0  0  0  0  0  0
   10.4789   -4.3641   20.9564 C   0  0  0  0  0  0  0  0  0  0  0  0
    8.7421   -5.1412   16.3650 C   0  0  0  0  0  0  0  0  0  0  0  0
   11.4353   -2.9204   17.8044 C   0  0  0  0  0  0  0  0  0  0  0  0
   11.1529   -4.3028   22.1277 C   0  0  0  0  0  0  0  0  0  0  0  0
   11.1290   -4.8502   19.8052 C   0  0  0  0  0  0  0  0  0  0  0  0
   12.4329   -4.2159   24.4224 C   0  0  0  0  0  0  0  0  0  0  0  0
    3.4740   -9.0387   16.5022 C   0  0  0  0  0  0  0  0  0  0  0  0
    6.8384   -7.9290   17.5282 N   0  0  0  0  0  0  0  0  0  0  0  0
    9.4126   -5.9853   18.4899 C   0  0  0  0  0  0  0  0  0  0  0  0
    4.2064  -10.3242   18.3302 C   0  0  0  0  0  0  0  0  0  0  0  0
    9.6599   -4.1551   16.4796 N   0  0  0  0  0  0  0  0  0  0  0  0
    7.0644   -6.4612   15.7375 N   0  0  0  0  0  0  0  0  0  0  0  0
    5.3549   -9.6322   18.3190 C   0  0  0  0  0  0  0  0  0  0  0  0
   10.3704   -4.9638   18.6510 C   0  0  0  0  0  0  0  0  0  0  0  0
    5.5935   -8.6419   17.4234 C   0  0  0  0  0  0  0  0  0  0  0  0
   13.0726   -4.6648   23.3394 O   0  0  0  0  0  0  0  0  0  0  0  0
    8.5955   -6.0705   17.3996 C   0  0  0  0  0  0  0  0  0  0  0  0
    4.6223   -8.3832   16.5030 C   0  0  0  0  0  0  0  0  0  0  0  0
   12.4690   -5.2624   19.9024 C   0  0  0  0  0  0  0  0  0  0  0  0
    3.2548   -9.9919   17.4189 C   0  0  0  0  0  0  0  0  0  0  0  0
   12.4767   -4.7393   22.1790 C   0  0  0  0  0  0  0  0  0  0  0  0
    7.8593   -5.3772   15.3569 N   0  0  0  0  0  0  0  0  0  0  0  0
    7.4412   -6.9038   16.9283 C   0  0  0  0  0  0  0  0  0  0  0  0
  1 21  4  0
  1 23  4  0
  2  5  1  0
  2 13  4  0
  2 16  4  0
  3  6  4  0
  3  7  4  0
  4 13  4  0
  4 19  4  0
  4 24  4  0
  6 23  4  0
  7 16  1  0
  7 21  4  0
  8 18  1  0
  9 20  4  0
  9 22  4  0
 10 17  1  0
 10 25  1  0
 11 16  4  0
 11 19  4  0
 12 15  4  0
 12 22  4  0
 14 24  4  0
 14 25  4  0
 15 17  4  0
 17 20  4  0
 18 23  1  0
 19 25  4  0
M  END
$$$$

 Created by Python create_sdf_string function

 25 28  0  0  0  0  0  0  0  0999 V2000
   13.1533   -5.2399   21.0682 C   0  0  0  0  0  0  0  0  0  0  0  0
   10.4729   -4.0295   17.6135 C   0  0  0  0  0  0  0  0  0  0  0  0
   10.4789   -4.3641   20.9564 C   0  0  0  0  0  0  0  0  0  0  0  0
    8.7421   -5.1412   16.3650 C   0  0  0  0  0  0  0  0  0  0  0  0
   11.4353   -2.9204   17.8044 C   0  0  0  0  0  0  0  0  0  0  0  0
   11.1529   -4.3028   22.1277 C   0  0  0  0  0  0  0  0  0  0  0  0
   11.1290   -4.8502   19.8052 C   0  0  0  0  0  0  0  0  0  0  0  0
   12.4329   -4.2159   24.4224 C   0  0  0  0  0  0  0  0  0  0  0  0
    3.4740   -9.0387   16.5022 C   0  0  0  0  0  0  0  0  0  0  0  0
    6.8384   -7.9290   17.5282 N   0  0  0  0  0  0  0  0  0  0  0  0
    9.4126   -5.9853   18.4899 C   0  0  0  0  0  0  0  0  0  0  0  0
    4.2064  -10.3242   18.3302 C   0  0  0  0  0  0  0  0  0  0  0  0
    9.6599   -4.1551   16.4796 N   0  0  0  0  0  0  0  0  0  0  0  0
    7.0644   -6.4612   15.7375 N   0  0  0  0  0  0  0  0  0  0  0  0
    5.3549   -9.6322   18.3190 C   0  0  0  0  0  0  0  0  0  0  0  0
   10.3704   -4.9638   18.6510 C   0  0  0  0  0  0  0  0  0  0  0  0
    5.5935   -8.6419   17.4234 C   0  0  0  0  0  0  0  0  0  0  0  0
   13.0726   -4.6648   23.3394 O   0  0  0  0  0  0  0  0  0  0  0  0
    8.5955   -6.0705   17.3996 C   0  0  0  0  0  0  0  0  0  0  0  0
    4.6223   -8.3832   16.5030 C   0  0  0  0  0  0  0  0  0  0  0  0
   12.4690   -5.2624   19.9024 C   0  0  0  0  0  0  0  0  0  0  0  0
    3.2548   -9.9919   17.4189 C   0  0  0  0  0  0  0  0  0  0  0  0
   12.4767   -4.7393   22.1790 C   0  0  0  0  0  0  0  0  0  0  0  0
    7.8593   -5.3772   15.3569 N   0  0  0  0  0  0  0  0  0  0  0  0
    7.4412   -6.9038   16.9283 C   0  0  0  0  0  0  0  0  0  0  0  0
  1 21  4  0
  1 23  4  0
  2  5  1  0
  2 13  4  0
  2 16  4  0
  3  6  4  0
  3  7  4  0
  4 13  4  0
  4 19  4  0
  4 24  4  0
  6 23  4  0
  7 16  1  0
  7 21  4  0
  8 18  1  0
  9 20  4  0
  9 22  4  0
 10 17  1  0
 10 25  1  0
 11 16  4  0
 11 19  4  0
 12 15  4  0
 12 22  4  0
 14 24  4  0
 14 25  4  0
 15 17  4  0
 17 20  4  0
 18 23  1  0
 19 25  4  0
M  END
$$$$

 Created by Python create_sdf_string function

 25 28  0  0  0  0  0  0  0  0999 V2000
   13.1533   -5.2399   21.0682 C   0  0  0  0  0  0  0  0  0  0  0  0
   10.4729   -4.0295   17.6135 C   0  0  0  0  0  0  0  0  0  0  0  0
   10.4789   -4.3641   20.9564 C   0  0  0  0  0  0  0  0  0  0  0  0
    8.7421   -5.1412   16.3650 C   0  0  0  0  0  0  0  0  0  0  0  0
   11.4353   -2.9204   17.8044 C   0  0  0  0  0  0  0  0  0  0  0  0
   11.1529   -4.3028   22.1277 C   0  0  0  0  0  0  0  0  0  0  0  0
   11.1290   -4.8502   19.8052 C   0  0  0  0  0  0  0  0  0  0  0  0
   12.4329   -4.2159   24.4224 C   0  0  0  0  0  0  0  0  0  0  0  0
    3.4740   -9.0387   16.5022 C   0  0  0  0  0  0  0  0  0  0  0  0
    6.8384   -7.9290   17.5282 N   0  0  0  0  0  0  0  0  0  0  0  0
    9.4126   -5.9853   18.4899 C   0  0  0  0  0  0  0  0  0  0  0  0
    4.2064  -10.3242   18.3302 C   0  0  0  0  0  0  0  0  0  0  0  0
    9.6599   -4.1551   16.4796 N   0  0  0  0  0  0  0  0  0  0  0  0
    7.0644   -6.4612   15.7375 N   0  0  0  0  0  0  0  0  0  0  0  0
    5.3549   -9.6322   18.3190 C   0  0  0  0  0  0  0  0  0  0  0  0
   10.3704   -4.9638   18.6510 C   0  0  0  0  0  0  0  0  0  0  0  0
    5.5935   -8.6419   17.4234 C   0  0  0  0  0  0  0  0  0  0  0  0
   13.0726   -4.6648   23.3394 O   0  0  0  0  0  0  0  0  0  0  0  0
    8.5955   -6.0705   17.3996 C   0  0  0  0  0  0  0  0  0  0  0  0
    4.6223   -8.3832   16.5030 C   0  0  0  0  0  0  0  0  0  0  0  0
   12.4690   -5.2624   19.9024 C   0  0  0  0  0  0  0  0  0  0  0  0
    3.2548   -9.9919   17.4189 C   0  0  0  0  0  0  0  0  0  0  0  0
   12.4767   -4.7393   22.1790 C   0  0  0  0  0  0  0  0  0  0  0  0
    7.8593   -5.3772   15.3569 N   0  0  0  0  0  0  0  0  0  0  0  0
    7.4412   -6.9038   16.9283 C   0  0  0  0  0  0  0  0  0  0  0  0
  1 21  4  0
  1 23  4  0
  2  5  1  0
  2 13  4  0
  2 16  4  0
  3  6  4  0
  3  7  4  0
  4 13  4  0
  4 19  4  0
  4 24  4  0
  6 23  4  0
  7 16  1  0
  7 21  4  0
  8 18  1  0
  9 20  4  0
  9 22  4  0
 10 17  1  0
 10 25  1  0
 11 16  4  0
 11 19  4  0
 12 15  4  0
 12 22  4  0
 14 24  4  0
 14 25  4  0
 15 17  4  0
 17 20  4  0
 18 23  1  0
 19 25  4  0
M  END
$$$$

 Created by Python create_sdf_string function

 25 28  0  0  0  0  0  0  0  0999 V2000
   13.1533   -5.2399   21.0682 C   0  0  0  0  0  0  0  0  0  0  0  0
   10.4729   -4.0295   17.6135 C   0  0  0  0  0  0  0  0  0  0  0  0
   10.4789   -4.3641   20.9564 C   0  0  0  0  0  0  0  0  0  0  0  0
    8.7421   -5.1412   16.3650 C   0  0  0  0  0  0  0  0  0  0  0  0
   11.4353   -2.9204   17.8044 C   0  0  0  0  0  0  0  0  0  0  0  0
   11.1529   -4.3028   22.1277 C   0  0  0  0  0  0  0  0  0  0  0  0
   11.1290   -4.8502   19.8052 C   0  0  0  0  0  0  0  0  0  0  0  0
   12.4329   -4.2159   24.4224 C   0  0  0  0  0  0  0  0  0  0  0  0
    3.4740   -9.0387   16.5022 C   0  0  0  0  0  0  0  0  0  0  0  0
    6.8384   -7.9290   17.5282 N   0  0  0  0  0  0  0  0  0  0  0  0
    9.4126   -5.9853   18.4899 C   0  0  0  0  0  0  0  0  0  0  0  0
    4.2064  -10.3242   18.3302 C   0  0  0  0  0  0  0  0  0  0  0  0
    9.6599   -4.1551   16.4796 N   0  0  0  0  0  0  0  0  0  0  0  0
    7.0644   -6.4612   15.7375 N   0  0  0  0  0  0  0  0  0  0  0  0
    5.3549   -9.6322   18.3190 C   0  0  0  0  0  0  0  0  0  0  0  0
   10.3704   -4.9638   18.6510 C   0  0  0  0  0  0  0  0  0  0  0  0
    5.5935   -8.6419   17.4234 C   0  0  0  0  0  0  0  0  0  0  0  0
   13.0726   -4.6648   23.3394 O   0  0  0  0  0  0  0  0  0  0  0  0
    8.5955   -6.0705   17.3996 C   0  0  0  0  0  0  0  0  0  0  0  0
    4.6223   -8.3832   16.5030 C   0  0  0  0  0  0  0  0  0  0  0  0
   12.4690   -5.2624   19.9024 C   0  0  0  0  0  0  0  0  0  0  0  0
    3.2548   -9.9919   17.4189 C   0  0  0  0  0  0  0  0  0  0  0  0
   12.4767   -4.7393   22.1790 C   0  0  0  0  0  0  0  0  0  0  0  0
    7.8593   -5.3772   15.3569 N   0  0  0  0  0  0  0  0  0  0  0  0
    7.4412   -6.9038   16.9283 C   0  0  0  0  0  0  0  0  0  0  0  0
  1 21  4  0
  1 23  4  0
  2  5  1  0
  2 13  4  0
  2 16  4  0
  3  6  4  0
  3  7  4  0
  4 13  4  0
  4 19  4  0
  4 24  4  0
  6 23  4  0
  7 16  1  0
  7 21  4  0
  8 18  1  0
  9 20  4  0
  9 22  4  0
 10 17  1  0
 10 25  1  0
 11 16  4  0
 11 19  4  0
 12 15  4  0
 12 22  4  0
 14 24  4  0
 14 25  4  0
 15 17  4  0
 17 20  4  0
 18 23  1  0
 19 25  4  0
M  END
$$$$

 Created by Python create_sdf_string function

 25 28  0  0  0  0  0  0  0  0999 V2000
   13.1533   -5.2399   21.0682 C   0  0  0  0  0  0  0  0  0  0  0  0
   10.4729   -4.0295   17.6135 C   0  0  0  0  0  0  0  0  0  0  0  0
   10.4789   -4.3641   20.9564 C   0  0  0  0  0  0  0  0  0  0  0  0
    8.7421   -5.1412   16.3650 C   0  0  0  0  0  0  0  0  0  0  0  0
   11.4353   -2.9204   17.8044 C   0  0  0  0  0  0  0  0  0  0  0  0
   11.1529   -4.3028   22.1277 C   0  0  0  0  0  0  0  0  0  0  0  0
   11.1290   -4.8502   19.8052 C   0  0  0  0  0  0  0  0  0  0  0  0
   12.4329   -4.2159   24.4224 C   0  0  0  0  0  0  0  0  0  0  0  0
    3.4740   -9.0387   16.5022 C   0  0  0  0  0  0  0  0  0  0  0  0
    6.8384   -7.9290   17.5282 N   0  0  0  0  0  0  0  0  0  0  0  0
    9.4126   -5.9853   18.4899 C   0  0  0  0  0  0  0  0  0  0  0  0
    4.2064  -10.3242   18.3302 C   0  0  0  0  0  0  0  0  0  0  0  0
    9.6599   -4.1551   16.4796 N   0  0  0  0  0  0  0  0  0  0  0  0
    7.0644   -6.4612   15.7375 N   0  0  0  0  0  0  0  0  0  0  0  0
    5.3549   -9.6322   18.3190 C   0  0  0  0  0  0  0  0  0  0  0  0
   10.3704   -4.9638   18.6510 C   0  0  0  0  0  0  0  0  0  0  0  0
    5.5935   -8.6419   17.4234 C   0  0  0  0  0  0  0  0  0  0  0  0
   13.0726   -4.6648   23.3394 O   0  0  0  0  0  0  0  0  0  0  0  0
    8.5955   -6.0705   17.3996 C   0  0  0  0  0  0  0  0  0  0  0  0
    4.6223   -8.3832   16.5030 C   0  0  0  0  0  0  0  0  0  0  0  0
   12.4690   -5.2624   19.9024 C   0  0  0  0  0  0  0  0  0  0  0  0
    3.2548   -9.9919   17.4189 C   0  0  0  0  0  0  0  0  0  0  0  0
   12.4767   -4.7393   22.1790 C   0  0  0  0  0  0  0  0  0  0  0  0
    7.8593   -5.3772   15.3569 N   0  0  0  0  0  0  0  0  0  0  0  0
    7.4412   -6.9038   16.9283 C   0  0  0  0  0  0  0  0  0  0  0  0
  1 21  4  0
  1 23  4  0
  2  5  1  0
  2 13  4  0
  2 16  4  0
  3  6  4  0
  3  7  4  0
  4 13  4  0
  4 19  4  0
  4 24  4  0
  6 23  4  0
  7 16  1  0
  7 21  4  0
  8 18  1  0
  9 20  4  0
  9 22  4  0
 10 17  1  0
 10 25  1  0
 11 16  4  0
 11 19  4  0
 12 15  4  0
 12 22  4  0
 14 24  4  0
 14 25  4  0
 15 17  4  0
 17 20  4  0
 18 23  1  0
 19 25  4  0
M  END
$$$$

 Created by Python create_sdf_string function

 25 28  0  0  0  0  0  0  0  0999 V2000
   13.1533   -5.2399   21.0682 C   0  0  0  0  0  0  0  0  0  0  0  0
   10.4729   -4.0295   17.6135 C   0  0  0  0  0  0  0  0  0  0  0  0
   10.4789   -4.3641   20.9564 C   0  0  0  0  0  0  0  0  0  0  0  0
    8.7421   -5.1412   16.3650 C   0  0  0  0  0  0  0  0  0  0  0  0
   11.4353   -2.9204   17.8044 C   0  0  0  0  0  0  0  0  0  0  0  0
   11.1529   -4.3028   22.1277 C   0  0  0  0  0  0  0  0  0  0  0  0
   11.1290   -4.8502   19.8052 C   0  0  0  0  0  0  0  0  0  0  0  0
   12.4329   -4.2159   24.4224 C   0  0  0  0  0  0  0  0  0  0  0  0
    3.4740   -9.0387   16.5022 C   0  0  0  0  0  0  0  0  0  0  0  0
    6.8384   -7.9290   17.5282 N   0  0  0  0  0  0  0  0  0  0  0  0
    9.4126   -5.9853   18.4899 C   0  0  0  0  0  0  0  0  0  0  0  0
    4.2064  -10.3242   18.3302 C   0  0  0  0  0  0  0  0  0  0  0  0
    9.6599   -4.1551   16.4796 N   0  0  0  0  0  0  0  0  0  0  0  0
    7.0644   -6.4612   15.7375 N   0  0  0  0  0  0  0  0  0  0  0  0
    5.3549   -9.6322   18.3190 C   0  0  0  0  0  0  0  0  0  0  0  0
   10.3704   -4.9638   18.6510 C   0  0  0  0  0  0  0  0  0  0  0  0
    5.5935   -8.6419   17.4234 C   0  0  0  0  0  0  0  0  0  0  0  0
   13.0726   -4.6648   23.3394 O   0  0  0  0  0  0  0  0  0  0  0  0
    8.5955   -6.0705   17.3996 C   0  0  0  0  0  0  0  0  0  0  0  0
    4.6223   -8.3832   16.5030 C   0  0  0  0  0  0  0  0  0  0  0  0
   12.4690   -5.2624   19.9024 C   0  0  0  0  0  0  0  0  0  0  0  0
    3.2548   -9.9919   17.4189 C   0  0  0  0  0  0  0  0  0  0  0  0
   12.4767   -4.7393   22.1790 C   0  0  0  0  0  0  0  0  0  0  0  0
    7.8593   -5.3772   15.3569 N   0  0  0  0  0  0  0  0  0  0  0  0
    7.4412   -6.9038   16.9283 C   0  0  0  0  0  0  0  0  0  0  0  0
  1 21  4  0
  1 23  4  0
  2  5  1  0
  2 13  4  0
  2 16  4  0
  3  6  4  0
  3  7  4  0
  4 13  4  0
  4 19  4  0
  4 24  4  0
  6 23  4  0
  7 16  1  0
  7 21  4  0
  8 18  1  0
  9 20  4  0
  9 22  4  0
 10 17  1  0
 10 25  1  0
 11 16  4  0
 11 19  4  0
 12 15  4  0
 12 22  4  0
 14 24  4  0
 14 25  4  0
 15 17  4  0
 17 20  4  0
 18 23  1  0
 19 25  4  0
M  END
$$$$

 Created by Python create_sdf_string function

 25 28  0  0  0  0  0  0  0  0999 V2000
   13.1533   -5.2399   21.0682 C   0  0  0  0  0  0  0  0  0  0  0  0
   10.4729   -4.0295   17.6135 C   0  0  0  0  0  0  0  0  0  0  0  0
   10.4789   -4.3641   20.9564 C   0  0  0  0  0  0  0  0  0  0  0  0
    8.7421   -5.1412   16.3650 C   0  0  0  0  0  0  0  0  0  0  0  0
   11.4353   -2.9204   17.8044 C   0  0  0  0  0  0  0  0  0  0  0  0
   11.1529   -4.3028   22.1277 C   0  0  0  0  0  0  0  0  0  0  0  0
   11.1290   -4.8502   19.8052 C   0  0  0  0  0  0  0  0  0  0  0  0
   12.4329   -4.2159   24.4224 C   0  0  0  0  0  0  0  0  0  0  0  0
    3.4740   -9.0387   16.5022 C   0  0  0  0  0  0  0  0  0  0  0  0
    6.8384   -7.9290   17.5282 N   0  0  0  0  0  0  0  0  0  0  0  0
    9.4126   -5.9853   18.4899 C   0  0  0  0  0  0  0  0  0  0  0  0
    4.2064  -10.3242   18.3302 C   0  0  0  0  0  0  0  0  0  0  0  0
    9.6599   -4.1551   16.4796 N   0  0  0  0  0  0  0  0  0  0  0  0
    7.0644   -6.4612   15.7375 N   0  0  0  0  0  0  0  0  0  0  0  0
    5.3549   -9.6322   18.3190 C   0  0  0  0  0  0  0  0  0  0  0  0
   10.3704   -4.9638   18.6510 C   0  0  0  0  0  0  0  0  0  0  0  0
    5.5935   -8.6419   17.4234 C   0  0  0  0  0  0  0  0  0  0  0  0
   13.0726   -4.6648   23.3394 O   0  0  0  0  0  0  0  0  0  0  0  0
    8.5955   -6.0705   17.3996 C   0  0  0  0  0  0  0  0  0  0  0  0
    4.6223   -8.3832   16.5030 C   0  0  0  0  0  0  0  0  0  0  0  0
   12.4690   -5.2624   19.9024 C   0  0  0  0  0  0  0  0  0  0  0  0
    3.2548   -9.9919   17.4189 C   0  0  0  0  0  0  0  0  0  0  0  0
   12.4767   -4.7393   22.1790 C   0  0  0  0  0  0  0  0  0  0  0  0
    7.8593   -5.3772   15.3569 N   0  0  0  0  0  0  0  0  0  0  0  0
    7.4412   -6.9038   16.9283 C   0  0  0  0  0  0  0  0  0  0  0  0
  1 21  4  0
  1 23  4  0
  2  5  1  0
  2 13  4  0
  2 16  4  0
  3  6  4  0
  3  7  4  0
  4 13  4  0
  4 19  4  0
  4 24  4  0
  6 23  4  0
  7 16  1  0
  7 21  4  0
  8 18  1  0
  9 20  4  0
  9 22  4  0
 10 17  1  0
 10 25  1  0
 11 16  4  0
 11 19  4  0
 12 15  4  0
 12 22  4  0
 14 24  4  0
 14 25  4  0
 15 17  4  0
 17 20  4  0
 18 23  1  0
 19 25  4  0
M  END
$$$$

 Created by Python create_sdf_string function

 25 28  0  0  0  0  0  0  0  0999 V2000
   13.1533   -5.2399   21.0682 C   0  0  0  0  0  0  0  0  0  0  0  0
   10.4729   -4.0295   17.6135 C   0  0  0  0  0  0  0  0  0  0  0  0
   10.4789   -4.3641   20.9564 C   0  0  0  0  0  0  0  0  0  0  0  0
    8.7421   -5.1412   16.3650 C   0  0  0  0  0  0  0  0  0  0  0  0
   11.4353   -2.9204   17.8044 C   0  0  0  0  0  0  0  0  0  0  0  0
   11.1529   -4.3028   22.1277 C   0  0  0  0  0  0  0  0  0  0  0  0
   11.1290   -4.8502   19.8052 C   0  0  0  0  0  0  0  0  0  0  0  0
   12.4329   -4.2159   24.4224 C   0  0  0  0  0  0  0  0  0  0  0  0
    3.4740   -9.0387   16.5022 C   0  0  0  0  0  0  0  0  0  0  0  0
    6.8384   -7.9290   17.5282 N   0  0  0  0  0  0  0  0  0  0  0  0
    9.4126   -5.9853   18.4899 C   0  0  0  0  0  0  0  0  0  0  0  0
    4.2064  -10.3242   18.3302 C   0  0  0  0  0  0  0  0  0  0  0  0
    9.6599   -4.1551   16.4796 N   0  0  0  0  0  0  0  0  0  0  0  0
    7.0644   -6.4612   15.7375 N   0  0  0  0  0  0  0  0  0  0  0  0
    5.3549   -9.6322   18.3190 C   0  0  0  0  0  0  0  0  0  0  0  0
   10.3704   -4.9638   18.6510 C   0  0  0  0  0  0  0  0  0  0  0  0
    5.5935   -8.6419   17.4234 C   0  0  0  0  0  0  0  0  0  0  0  0
   13.0726   -4.6648   23.3394 O   0  0  0  0  0  0  0  0  0  0  0  0
    8.5955   -6.0705   17.3996 C   0  0  0  0  0  0  0  0  0  0  0  0
    4.6223   -8.3832   16.5030 C   0  0  0  0  0  0  0  0  0  0  0  0
   12.4690   -5.2624   19.9024 C   0  0  0  0  0  0  0  0  0  0  0  0
    3.2548   -9.9919   17.4189 C   0  0  0  0  0  0  0  0  0  0  0  0
   12.4767   -4.7393   22.1790 C   0  0  0  0  0  0  0  0  0  0  0  0
    7.8593   -5.3772   15.3569 N   0  0  0  0  0  0  0  0  0  0  0  0
    7.4412   -6.9038   16.9283 C   0  0  0  0  0  0  0  0  0  0  0  0
  1 21  4  0
  1 23  4  0
  2  5  1  0
  2 13  4  0
  2 16  4  0
  3  6  4  0
  3  7  4  0
  4 13  4  0
  4 19  4  0
  4 24  4  0
  6 23  4  0
  7 16  1  0
  7 21  4  0
  8 18  1  0
  9 20  4  0
  9 22  4  0
 10 17  1  0
 10 25  1  0
 11 16  4  0
 11 19  4  0
 12 15  4  0
 12 22  4  0
 14 24  4  0
 14 25  4  0
 15 17  4  0
 17 20  4  0
 18 23  1  0
 19 25  4  0
M  END
$$$$

 Created by Python create_sdf_string function

 25 28  0  0  0  0  0  0  0  0999 V2000
   13.1533   -5.2399   21.0682 C   0  0  0  0  0  0  0  0  0  0  0  0
   10.4729   -4.0295   17.6135 C   0  0  0  0  0  0  0  0  0  0  0  0
   10.4789   -4.3641   20.9564 C   0  0  0  0  0  0  0  0  0  0  0  0
    8.7421   -5.1412   16.3650 C   0  0  0  0  0  0  0  0  0  0  0  0
   11.4353   -2.9204   17.8044 C   0  0  0  0  0  0  0  0  0  0  0  0
   11.1529   -4.3028   22.1277 C   0  0  0  0  0  0  0  0  0  0  0  0
   11.1290   -4.8502   19.8052 C   0  0  0  0  0  0  0  0  0  0  0  0
   12.4329   -4.2159   24.4224 C   0  0  0  0  0  0  0  0  0  0  0  0
    3.4740   -9.0387   16.5022 C   0  0  0  0  0  0  0  0  0  0  0  0
    6.8384   -7.9290   17.5282 N   0  0  0  0  0  0  0  0  0  0  0  0
    9.4126   -5.9853   18.4899 C   0  0  0  0  0  0  0  0  0  0  0  0
    4.2064  -10.3242   18.3302 C   0  0  0  0  0  0  0  0  0  0  0  0
    9.6599   -4.1551   16.4796 N   0  0  0  0  0  0  0  0  0  0  0  0
    7.0644   -6.4612   15.7375 N   0  0  0  0  0  0  0  0  0  0  0  0
    5.3549   -9.6322   18.3190 C   0  0  0  0  0  0  0  0  0  0  0  0
   10.3704   -4.9638   18.6510 C   0  0  0  0  0  0  0  0  0  0  0  0
    5.5935   -8.6419   17.4234 C   0  0  0  0  0  0  0  0  0  0  0  0
   13.0726   -4.6648   23.3394 O   0  0  0  0  0  0  0  0  0  0  0  0
    8.5955   -6.0705   17.3996 C   0  0  0  0  0  0  0  0  0  0  0  0
    4.6223   -8.3832   16.5030 C   0  0  0  0  0  0  0  0  0  0  0  0
   12.4690   -5.2624   19.9024 C   0  0  0  0  0  0  0  0  0  0  0  0
    3.2548   -9.9919   17.4189 C   0  0  0  0  0  0  0  0  0  0  0  0
   12.4767   -4.7393   22.1790 C   0  0  0  0  0  0  0  0  0  0  0  0
    7.8593   -5.3772   15.3569 N   0  0  0  0  0  0  0  0  0  0  0  0
    7.4412   -6.9038   16.9283 C   0  0  0  0  0  0  0  0  0  0  0  0
  1 21  4  0
  1 23  4  0
  2  5  1  0
  2 13  4  0
  2 16  4  0
  3  6  4  0
  3  7  4  0
  4 13  4  0
  4 19  4  0
  4 24  4  0
  6 23  4  0
  7 16  1  0
  7 21  4  0
  8 18  1  0
  9 20  4  0
  9 22  4  0
 10 17  1  0
 10 25  1  0
 11 16  4  0
 11 19  4  0
 12 15  4  0
 12 22  4  0
 14 24  4  0
 14 25  4  0
 15 17  4  0
 17 20  4  0
 18 23  1  0
 19 25  4  0
M  END
$$$$

 Created by Python create_sdf_string function

 25 28  0  0  0  0  0  0  0  0999 V2000
   13.1533   -5.2399   21.0682 C   0  0  0  0  0  0  0  0  0  0  0  0
   10.4729   -4.0295   17.6135 C   0  0  0  0  0  0  0  0  0  0  0  0
   10.4789   -4.3641   20.9564 C   0  0  0  0  0  0  0  0  0  0  0  0
    8.7421   -5.1412   16.3650 C   0  0  0  0  0  0  0  0  0  0  0  0
   11.4353   -2.9204   17.8044 C   0  0  0  0  0  0  0  0  0  0  0  0
   11.1529   -4.3028   22.1277 C   0  0  0  0  0  0  0  0  0  0  0  0
   11.1290   -4.8502   19.8052 C   0  0  0  0  0  0  0  0  0  0  0  0
   12.4329   -4.2159   24.4224 C   0  0  0  0  0  0  0  0  0  0  0  0
    3.4740   -9.0387   16.5022 C   0  0  0  0  0  0  0  0  0  0  0  0
    6.8384   -7.9290   17.5282 N   0  0  0  0  0  0  0  0  0  0  0  0
    9.4126   -5.9853   18.4899 C   0  0  0  0  0  0  0  0  0  0  0  0
    4.2064  -10.3242   18.3302 C   0  0  0  0  0  0  0  0  0  0  0  0
    9.6599   -4.1551   16.4796 N   0  0  0  0  0  0  0  0  0  0  0  0
    7.0644   -6.4612   15.7375 N   0  0  0  0  0  0  0  0  0  0  0  0
    5.3549   -9.6322   18.3190 C   0  0  0  0  0  0  0  0  0  0  0  0
   10.3704   -4.9638   18.6510 C   0  0  0  0  0  0  0  0  0  0  0  0
    5.5935   -8.6419   17.4234 C   0  0  0  0  0  0  0  0  0  0  0  0
   13.0726   -4.6648   23.3394 O   0  0  0  0  0  0  0  0  0  0  0  0
    8.5955   -6.0705   17.3996 C   0  0  0  0  0  0  0  0  0  0  0  0
    4.6223   -8.3832   16.5030 C   0  0  0  0  0  0  0  0  0  0  0  0
   12.4690   -5.2624   19.9024 C   0  0  0  0  0  0  0  0  0  0  0  0
    3.2548   -9.9919   17.4189 C   0  0  0  0  0  0  0  0  0  0  0  0
   12.4767   -4.7393   22.1790 C   0  0  0  0  0  0  0  0  0  0  0  0
    7.8593   -5.3772   15.3569 N   0  0  0  0  0  0  0  0  0  0  0  0
    7.4412   -6.9038   16.9283 C   0  0  0  0  0  0  0  0  0  0  0  0
  1 21  4  0
  1 23  4  0
  2  5  1  0
  2 13  4  0
  2 16  4  0
  3  6  4  0
  3  7  4  0
  4 13  4  0
  4 19  4  0
  4 24  4  0
  6 23  4  0
  7 16  1  0
  7 21  4  0
  8 18  1  0
  9 20  4  0
  9 22  4  0
 10 17  1  0
 10 25  1  0
 11 16  4  0
 11 19  4  0
 12 15  4  0
 12 22  4  0
 14 24  4  0
 14 25  4  0
 15 17  4  0
 17 20  4  0
 18 23  1  0
 19 25  4  0
M  END
$$$$

 Created by Python create_sdf_string function

 25 28  0  0  0  0  0  0  0  0999 V2000
   13.1533   -5.2399   21.0682 C   0  0  0  0  0  0  0  0  0  0  0  0
   10.4729   -4.0295   17.6135 C   0  0  0  0  0  0  0  0  0  0  0  0
   10.4789   -4.3641   20.9564 C   0  0  0  0  0  0  0  0  0  0  0  0
    8.7421   -5.1412   16.3650 C   0  0  0  0  0  0  0  0  0  0  0  0
   11.4353   -2.9204   17.8044 C   0  0  0  0  0  0  0  0  0  0  0  0
   11.1529   -4.3028   22.1277 C   0  0  0  0  0  0  0  0  0  0  0  0
   11.1290   -4.8502   19.8052 C   0  0  0  0  0  0  0  0  0  0  0  0
   12.4329   -4.2159   24.4224 C   0  0  0  0  0  0  0  0  0  0  0  0
    3.4740   -9.0387   16.5022 C   0  0  0  0  0  0  0  0  0  0  0  0
    6.8384   -7.9290   17.5282 N   0  0  0  0  0  0  0  0  0  0  0  0
    9.4126   -5.9853   18.4899 C   0  0  0  0  0  0  0  0  0  0  0  0
    4.2064  -10.3242   18.3302 C   0  0  0  0  0  0  0  0  0  0  0  0
    9.6599   -4.1551   16.4796 N   0  0  0  0  0  0  0  0  0  0  0  0
    7.0644   -6.4612   15.7375 N   0  0  0  0  0  0  0  0  0  0  0  0
    5.3549   -9.6322   18.3190 C   0  0  0  0  0  0  0  0  0  0  0  0
   10.3704   -4.9638   18.6510 C   0  0  0  0  0  0  0  0  0  0  0  0
    5.5935   -8.6419   17.4234 C   0  0  0  0  0  0  0  0  0  0  0  0
   13.0726   -4.6648   23.3394 O   0  0  0  0  0  0  0  0  0  0  0  0
    8.5955   -6.0705   17.3996 C   0  0  0  0  0  0  0  0  0  0  0  0
    4.6223   -8.3832   16.5030 C   0  0  0  0  0  0  0  0  0  0  0  0
   12.4690   -5.2624   19.9024 C   0  0  0  0  0  0  0  0  0  0  0  0
    3.2548   -9.9919   17.4189 C   0  0  0  0  0  0  0  0  0  0  0  0
   12.4767   -4.7393   22.1790 C   0  0  0  0  0  0  0  0  0  0  0  0
    7.8593   -5.3772   15.3569 N   0  0  0  0  0  0  0  0  0  0  0  0
    7.4412   -6.9038   16.9283 C   0  0  0  0  0  0  0  0  0  0  0  0
  1 21  4  0
  1 23  4  0
  2  5  1  0
  2 13  4  0
  2 16  4  0
  3  6  4  0
  3  7  4  0
  4 13  4  0
  4 19  4  0
  4 24  4  0
  6 23  4  0
  7 16  1  0
  7 21  4  0
  8 18  1  0
  9 20  4  0
  9 22  4  0
 10 17  1  0
 10 25  1  0
 11 16  4  0
 11 19  4  0
 12 15  4  0
 12 22  4  0
 14 24  4  0
 14 25  4  0
 15 17  4  0
 17 20  4  0
 18 23  1  0
 19 25  4  0
M  END
$$$$

 Created by Python create_sdf_string function

 25 28  0  0  0  0  0  0  0  0999 V2000
   13.1533   -5.2399   21.0682 C   0  0  0  0  0  0  0  0  0  0  0  0
   10.4729   -4.0295   17.6135 C   0  0  0  0  0  0  0  0  0  0  0  0
   10.4789   -4.3641   20.9564 C   0  0  0  0  0  0  0  0  0  0  0  0
    8.7421   -5.1412   16.3650 C   0  0  0  0  0  0  0  0  0  0  0  0
   11.4353   -2.9204   17.8044 C   0  0  0  0  0  0  0  0  0  0  0  0
   11.1529   -4.3028   22.1277 C   0  0  0  0  0  0  0  0  0  0  0  0
   11.1290   -4.8502   19.8052 C   0  0  0  0  0  0  0  0  0  0  0  0
   12.4329   -4.2159   24.4224 C   0  0  0  0  0  0  0  0  0  0  0  0
    3.4740   -9.0387   16.5022 C   0  0  0  0  0  0  0  0  0  0  0  0
    6.8384   -7.9290   17.5282 N   0  0  0  0  0  0  0  0  0  0  0  0
    9.4126   -5.9853   18.4899 C   0  0  0  0  0  0  0  0  0  0  0  0
    4.2064  -10.3242   18.3302 C   0  0  0  0  0  0  0  0  0  0  0  0
    9.6599   -4.1551   16.4796 N   0  0  0  0  0  0  0  0  0  0  0  0
    7.0644   -6.4612   15.7375 N   0  0  0  0  0  0  0  0  0  0  0  0
    5.3549   -9.6322   18.3190 C   0  0  0  0  0  0  0  0  0  0  0  0
   10.3704   -4.9638   18.6510 C   0  0  0  0  0  0  0  0  0  0  0  0
    5.5935   -8.6419   17.4234 C   0  0  0  0  0  0  0  0  0  0  0  0
   13.0726   -4.6648   23.3394 O   0  0  0  0  0  0  0  0  0  0  0  0
    8.5955   -6.0705   17.3996 C   0  0  0  0  0  0  0  0  0  0  0  0
    4.6223   -8.3832   16.5030 C   0  0  0  0  0  0  0  0  0  0  0  0
   12.4690   -5.2624   19.9024 C   0  0  0  0  0  0  0  0  0  0  0  0
    3.2548   -9.9919   17.4189 C   0  0  0  0  0  0  0  0  0  0  0  0
   12.4767   -4.7393   22.1790 C   0  0  0  0  0  0  0  0  0  0  0  0
    7.8593   -5.3772   15.3569 N   0  0  0  0  0  0  0  0  0  0  0  0
    7.4412   -6.9038   16.9283 C   0  0  0  0  0  0  0  0  0  0  0  0
  1 21  4  0
  1 23  4  0
  2  5  1  0
  2 13  4  0
  2 16  4  0
  3  6  4  0
  3  7  4  0
  4 13  4  0
  4 19  4  0
  4 24  4  0
  6 23  4  0
  7 16  1  0
  7 21  4  0
  8 18  1  0
  9 20  4  0
  9 22  4  0
 10 17  1  0
 10 25  1  0
 11 16  4  0
 11 19  4  0
 12 15  4  0
 12 22  4  0
 14 24  4  0
 14 25  4  0
 15 17  4  0
 17 20  4  0
 18 23  1  0
 19 25  4  0
M  END
$$$$

 Created by Python create_sdf_string function

 25 28  0  0  0  0  0  0  0  0999 V2000
   13.1533   -5.2399   21.0682 C   0  0  0  0  0  0  0  0  0  0  0  0
   10.4729   -4.0295   17.6135 C   0  0  0  0  0  0  0  0  0  0  0  0
   10.4789   -4.3641   20.9564 C   0  0  0  0  0  0  0  0  0  0  0  0
    8.7421   -5.1412   16.3650 C   0  0  0  0  0  0  0  0  0  0  0  0
   11.4353   -2.9204   17.8044 C   0  0  0  0  0  0  0  0  0  0  0  0
   11.1529   -4.3028   22.1277 C   0  0  0  0  0  0  0  0  0  0  0  0
   11.1290   -4.8502   19.8052 C   0  0  0  0  0  0  0  0  0  0  0  0
   12.4329   -4.2159   24.4224 C   0  0  0  0  0  0  0  0  0  0  0  0
    3.4740   -9.0387   16.5022 C   0  0  0  0  0  0  0  0  0  0  0  0
    6.8384   -7.9290   17.5282 N   0  0  0  0  0  0  0  0  0  0  0  0
    9.4126   -5.9853   18.4899 C   0  0  0  0  0  0  0  0  0  0  0  0
    4.2064  -10.3242   18.3302 C   0  0  0  0  0  0  0  0  0  0  0  0
    9.6599   -4.1551   16.4796 N   0  0  0  0  0  0  0  0  0  0  0  0
    7.0644   -6.4612   15.7375 N   0  0  0  0  0  0  0  0  0  0  0  0
    5.3549   -9.6322   18.3190 C   0  0  0  0  0  0  0  0  0  0  0  0
   10.3704   -4.9638   18.6510 C   0  0  0  0  0  0  0  0  0  0  0  0
    5.5935   -8.6419   17.4234 C   0  0  0  0  0  0  0  0  0  0  0  0
   13.0726   -4.6648   23.3394 O   0  0  0  0  0  0  0  0  0  0  0  0
    8.5955   -6.0705   17.3996 C   0  0  0  0  0  0  0  0  0  0  0  0
    4.6223   -8.3832   16.5030 C   0  0  0  0  0  0  0  0  0  0  0  0
   12.4690   -5.2624   19.9024 C   0  0  0  0  0  0  0  0  0  0  0  0
    3.2548   -9.9919   17.4189 C   0  0  0  0  0  0  0  0  0  0  0  0
   12.4767   -4.7393   22.1790 C   0  0  0  0  0  0  0  0  0  0  0  0
    7.8593   -5.3772   15.3569 N   0  0  0  0  0  0  0  0  0  0  0  0
    7.4412   -6.9038   16.9283 C   0  0  0  0  0  0  0  0  0  0  0  0
  1 21  4  0
  1 23  4  0
  2  5  1  0
  2 13  4  0
  2 16  4  0
  3  6  4  0
  3  7  4  0
  4 13  4  0
  4 19  4  0
  4 24  4  0
  6 23  4  0
  7 16  1  0
  7 21  4  0
  8 18  1  0
  9 20  4  0
  9 22  4  0
 10 17  1  0
 10 25  1  0
 11 16  4  0
 11 19  4  0
 12 15  4  0
 12 22  4  0
 14 24  4  0
 14 25  4  0
 15 17  4  0
 17 20  4  0
 18 23  1  0
 19 25  4  0
M  END
$$$$

 Created by Python create_sdf_string function

 25 28  0  0  0  0  0  0  0  0999 V2000
   13.1533   -5.2399   21.0682 C   0  0  0  0  0  0  0  0  0  0  0  0
   10.4729   -4.0295   17.6135 C   0  0  0  0  0  0  0  0  0  0  0  0
   10.4789   -4.3641   20.9564 C   0  0  0  0  0  0  0  0  0  0  0  0
    8.7421   -5.1412   16.3650 C   0  0  0  0  0  0  0  0  0  0  0  0
   11.4353   -2.9204   17.8044 C   0  0  0  0  0  0  0  0  0  0  0  0
   11.1529   -4.3028   22.1277 C   0  0  0  0  0  0  0  0  0  0  0  0
   11.1290   -4.8502   19.8052 C   0  0  0  0  0  0  0  0  0  0  0  0
   12.4329   -4.2159   24.4224 C   0  0  0  0  0  0  0  0  0  0  0  0
    3.4740   -9.0387   16.5022 C   0  0  0  0  0  0  0  0  0  0  0  0
    6.8384   -7.9290   17.5282 N   0  0  0  0  0  0  0  0  0  0  0  0
    9.4126   -5.9853   18.4899 C   0  0  0  0  0  0  0  0  0  0  0  0
    4.2064  -10.3242   18.3302 C   0  0  0  0  0  0  0  0  0  0  0  0
    9.6599   -4.1551   16.4796 N   0  0  0  0  0  0  0  0  0  0  0  0
    7.0644   -6.4612   15.7375 N   0  0  0  0  0  0  0  0  0  0  0  0
    5.3549   -9.6322   18.3190 C   0  0  0  0  0  0  0  0  0  0  0  0
   10.3704   -4.9638   18.6510 C   0  0  0  0  0  0  0  0  0  0  0  0
    5.5935   -8.6419   17.4234 C   0  0  0  0  0  0  0  0  0  0  0  0
   13.0726   -4.6648   23.3394 O   0  0  0  0  0  0  0  0  0  0  0  0
    8.5955   -6.0705   17.3996 C   0  0  0  0  0  0  0  0  0  0  0  0
    4.6223   -8.3832   16.5030 C   0  0  0  0  0  0  0  0  0  0  0  0
   12.4690   -5.2624   19.9024 C   0  0  0  0  0  0  0  0  0  0  0  0
    3.2548   -9.9919   17.4189 C   0  0  0  0  0  0  0  0  0  0  0  0
   12.4767   -4.7393   22.1790 C   0  0  0  0  0  0  0  0  0  0  0  0
    7.8593   -5.3772   15.3569 N   0  0  0  0  0  0  0  0  0  0  0  0
    7.4412   -6.9038   16.9283 C   0  0  0  0  0  0  0  0  0  0  0  0
  1 21  4  0
  1 23  4  0
  2  5  1  0
  2 13  4  0
  2 16  4  0
  3  6  4  0
  3  7  4  0
  4 13  4  0
  4 19  4  0
  4 24  4  0
  6 23  4  0
  7 16  1  0
  7 21  4  0
  8 18  1  0
  9 20  4  0
  9 22  4  0
 10 17  1  0
 10 25  1  0
 11 16  4  0
 11 19  4  0
 12 15  4  0
 12 22  4  0
 14 24  4  0
 14 25  4  0
 15 17  4  0
 17 20  4  0
 18 23  1  0
 19 25  4  0
M  END
$$$$

 Created by Python create_sdf_string function

 25 28  0  0  0  0  0  0  0  0999 V2000
   13.1533   -5.2399   21.0682 C   0  0  0  0  0  0  0  0  0  0  0  0
   10.4729   -4.0295   17.6135 C   0  0  0  0  0  0  0  0  0  0  0  0
   10.4789   -4.3641   20.9564 C   0  0  0  0  0  0  0  0  0  0  0  0
    8.7421   -5.1412   16.3650 C   0  0  0  0  0  0  0  0  0  0  0  0
   11.4353   -2.9204   17.8044 C   0  0  0  0  0  0  0  0  0  0  0  0
   11.1529   -4.3028   22.1277 C   0  0  0  0  0  0  0  0  0  0  0  0
   11.1290   -4.8502   19.8052 C   0  0  0  0  0  0  0  0  0  0  0  0
   12.4329   -4.2159   24.4224 C   0  0  0  0  0  0  0  0  0  0  0  0
    3.4740   -9.0387   16.5022 C   0  0  0  0  0  0  0  0  0  0  0  0
    6.8384   -7.9290   17.5282 N   0  0  0  0  0  0  0  0  0  0  0  0
    9.4126   -5.9853   18.4899 C   0  0  0  0  0  0  0  0  0  0  0  0
    4.2064  -10.3242   18.3302 C   0  0  0  0  0  0  0  0  0  0  0  0
    9.6599   -4.1551   16.4796 N   0  0  0  0  0  0  0  0  0  0  0  0
    7.0644   -6.4612   15.7375 N   0  0  0  0  0  0  0  0  0  0  0  0
    5.3549   -9.6322   18.3190 C   0  0  0  0  0  0  0  0  0  0  0  0
   10.3704   -4.9638   18.6510 C   0  0  0  0  0  0  0  0  0  0  0  0
    5.5935   -8.6419   17.4234 C   0  0  0  0  0  0  0  0  0  0  0  0
   13.0726   -4.6648   23.3394 O   0  0  0  0  0  0  0  0  0  0  0  0
    8.5955   -6.0705   17.3996 C   0  0  0  0  0  0  0  0  0  0  0  0
    4.6223   -8.3832   16.5030 C   0  0  0  0  0  0  0  0  0  0  0  0
   12.4690   -5.2624   19.9024 C   0  0  0  0  0  0  0  0  0  0  0  0
    3.2548   -9.9919   17.4189 C   0  0  0  0  0  0  0  0  0  0  0  0
   12.4767   -4.7393   22.1790 C   0  0  0  0  0  0  0  0  0  0  0  0
    7.8593   -5.3772   15.3569 N   0  0  0  0  0  0  0  0  0  0  0  0
    7.4412   -6.9038   16.9283 C   0  0  0  0  0  0  0  0  0  0  0  0
  1 21  4  0
  1 23  4  0
  2  5  1  0
  2 13  4  0
  2 16  4  0
  3  6  4  0
  3  7  4  0
  4 13  4  0
  4 19  4  0
  4 24  4  0
  6 23  4  0
  7 16  1  0
  7 21  4  0
  8 18  1  0
  9 20  4  0
  9 22  4  0
 10 17  1  0
 10 25  1  0
 11 16  4  0
 11 19  4  0
 12 15  4  0
 12 22  4  0
 14 24  4  0
 14 25  4  0
 15 17  4  0
 17 20  4  0
 18 23  1  0
 19 25  4  0
M  END
$$$$

 Created by Python create_sdf_string function

 25 28  0  0  0  0  0  0  0  0999 V2000
   13.1533   -5.2399   21.0682 C   0  0  0  0  0  0  0  0  0  0  0  0
   10.4729   -4.0295   17.6135 C   0  0  0  0  0  0  0  0  0  0  0  0
   10.4789   -4.3641   20.9564 C   0  0  0  0  0  0  0  0  0  0  0  0
    8.7421   -5.1412   16.3650 C   0  0  0  0  0  0  0  0  0  0  0  0
   11.4353   -2.9204   17.8044 C   0  0  0  0  0  0  0  0  0  0  0  0
   11.1529   -4.3028   22.1277 C   0  0  0  0  0  0  0  0  0  0  0  0
   11.1290   -4.8502   19.8052 C   0  0  0  0  0  0  0  0  0  0  0  0
   12.4329   -4.2159   24.4224 C   0  0  0  0  0  0  0  0  0  0  0  0
    3.4740   -9.0387   16.5022 C   0  0  0  0  0  0  0  0  0  0  0  0
    6.8384   -7.9290   17.5282 N   0  0  0  0  0  0  0  0  0  0  0  0
    9.4126   -5.9853   18.4899 C   0  0  0  0  0  0  0  0  0  0  0  0
    4.2064  -10.3242   18.3302 C   0  0  0  0  0  0  0  0  0  0  0  0
    9.6599   -4.1551   16.4796 N   0  0  0  0  0  0  0  0  0  0  0  0
    7.0644   -6.4612   15.7375 N   0  0  0  0  0  0  0  0  0  0  0  0
    5.3549   -9.6322   18.3190 C   0  0  0  0  0  0  0  0  0  0  0  0
   10.3704   -4.9638   18.6510 C   0  0  0  0  0  0  0  0  0  0  0  0
    5.5935   -8.6419   17.4234 C   0  0  0  0  0  0  0  0  0  0  0  0
   13.0726   -4.6648   23.3394 O   0  0  0  0  0  0  0  0  0  0  0  0
    8.5955   -6.0705   17.3996 C   0  0  0  0  0  0  0  0  0  0  0  0
    4.6223   -8.3832   16.5030 C   0  0  0  0  0  0  0  0  0  0  0  0
   12.4690   -5.2624   19.9024 C   0  0  0  0  0  0  0  0  0  0  0  0
    3.2548   -9.9919   17.4189 C   0  0  0  0  0  0  0  0  0  0  0  0
   12.4767   -4.7393   22.1790 C   0  0  0  0  0  0  0  0  0  0  0  0
    7.8593   -5.3772   15.3569 N   0  0  0  0  0  0  0  0  0  0  0  0
    7.4412   -6.9038   16.9283 C   0  0  0  0  0  0  0  0  0  0  0  0
  1 21  4  0
  1 23  4  0
  2  5  1  0
  2 13  4  0
  2 16  4  0
  3  6  4  0
  3  7  4  0
  4 13  4  0
  4 19  4  0
  4 24  4  0
  6 23  4  0
  7 16  1  0
  7 21  4  0
  8 18  1  0
  9 20  4  0
  9 22  4  0
 10 17  1  0
 10 25  1  0
 11 16  4  0
 11 19  4  0
 12 15  4  0
 12 22  4  0
 14 24  4  0
 14 25  4  0
 15 17  4  0
 17 20  4  0
 18 23  1  0
 19 25  4  0
M  END
$$$$

 Created by Python create_sdf_string function

 25 28  0  0  0  0  0  0  0  0999 V2000
   13.1533   -5.2399   21.0682 C   0  0  0  0  0  0  0  0  0  0  0  0
   10.4729   -4.0295   17.6135 C   0  0  0  0  0  0  0  0  0  0  0  0
   10.4789   -4.3641   20.9564 C   0  0  0  0  0  0  0  0  0  0  0  0
    8.7421   -5.1412   16.3650 C   0  0  0  0  0  0  0  0  0  0  0  0
   11.4353   -2.9204   17.8044 C   0  0  0  0  0  0  0  0  0  0  0  0
   11.1529   -4.3028   22.1277 C   0  0  0  0  0  0  0  0  0  0  0  0
   11.1290   -4.8502   19.8052 C   0  0  0  0  0  0  0  0  0  0  0  0
   12.4329   -4.2159   24.4224 C   0  0  0  0  0  0  0  0  0  0  0  0
    3.4740   -9.0387   16.5022 C   0  0  0  0  0  0  0  0  0  0  0  0
    6.8384   -7.9290   17.5282 N   0  0  0  0  0  0  0  0  0  0  0  0
    9.4126   -5.9853   18.4899 C   0  0  0  0  0  0  0  0  0  0  0  0
    4.2064  -10.3242   18.3302 C   0  0  0  0  0  0  0  0  0  0  0  0
    9.6599   -4.1551   16.4796 N   0  0  0  0  0  0  0  0  0  0  0  0
    7.0644   -6.4612   15.7375 N   0  0  0  0  0  0  0  0  0  0  0  0
    5.3549   -9.6322   18.3190 C   0  0  0  0  0  0  0  0  0  0  0  0
   10.3704   -4.9638   18.6510 C   0  0  0  0  0  0  0  0  0  0  0  0
    5.5935   -8.6419   17.4234 C   0  0  0  0  0  0  0  0  0  0  0  0
   13.0726   -4.6648   23.3394 O   0  0  0  0  0  0  0  0  0  0  0  0
    8.5955   -6.0705   17.3996 C   0  0  0  0  0  0  0  0  0  0  0  0
    4.6223   -8.3832   16.5030 C   0  0  0  0  0  0  0  0  0  0  0  0
   12.4690   -5.2624   19.9024 C   0  0  0  0  0  0  0  0  0  0  0  0
    3.2548   -9.9919   17.4189 C   0  0  0  0  0  0  0  0  0  0  0  0
   12.4767   -4.7393   22.1790 C   0  0  0  0  0  0  0  0  0  0  0  0
    7.8593   -5.3772   15.3569 N   0  0  0  0  0  0  0  0  0  0  0  0
    7.4412   -6.9038   16.9283 C   0  0  0  0  0  0  0  0  0  0  0  0
  1 21  4  0
  1 23  4  0
  2  5  1  0
  2 13  4  0
  2 16  4  0
  3  6  4  0
  3  7  4  0
  4 13  4  0
  4 19  4  0
  4 24  4  0
  6 23  4  0
  7 16  1  0
  7 21  4  0
  8 18  1  0
  9 20  4  0
  9 22  4  0
 10 17  1  0
 10 25  1  0
 11 16  4  0
 11 19  4  0
 12 15  4  0
 12 22  4  0
 14 24  4  0
 14 25  4  0
 15 17  4  0
 17 20  4  0
 18 23  1  0
 19 25  4  0
M  END
$$$$

 Created by Python create_sdf_string function

 25 28  0  0  0  0  0  0  0  0999 V2000
   13.1533   -5.2399   21.0682 C   0  0  0  0  0  0  0  0  0  0  0  0
   10.4729   -4.0295   17.6135 C   0  0  0  0  0  0  0  0  0  0  0  0
   10.4789   -4.3641   20.9564 C   0  0  0  0  0  0  0  0  0  0  0  0
    8.7421   -5.1412   16.3650 C   0  0  0  0  0  0  0  0  0  0  0  0
   11.4353   -2.9204   17.8044 C   0  0  0  0  0  0  0  0  0  0  0  0
   11.1529   -4.3028   22.1277 C   0  0  0  0  0  0  0  0  0  0  0  0
   11.1290   -4.8502   19.8052 C   0  0  0  0  0  0  0  0  0  0  0  0
   12.4329   -4.2159   24.4224 C   0  0  0  0  0  0  0  0  0  0  0  0
    3.4740   -9.0387   16.5022 C   0  0  0  0  0  0  0  0  0  0  0  0
    6.8384   -7.9290   17.5282 N   0  0  0  0  0  0  0  0  0  0  0  0
    9.4126   -5.9853   18.4899 C   0  0  0  0  0  0  0  0  0  0  0  0
    4.2064  -10.3242   18.3302 C   0  0  0  0  0  0  0  0  0  0  0  0
    9.6599   -4.1551   16.4796 N   0  0  0  0  0  0  0  0  0  0  0  0
    7.0644   -6.4612   15.7375 N   0  0  0  0  0  0  0  0  0  0  0  0
    5.3549   -9.6322   18.3190 C   0  0  0  0  0  0  0  0  0  0  0  0
   10.3704   -4.9638   18.6510 C   0  0  0  0  0  0  0  0  0  0  0  0
    5.5935   -8.6419   17.4234 C   0  0  0  0  0  0  0  0  0  0  0  0
   13.0726   -4.6648   23.3394 O   0  0  0  0  0  0  0  0  0  0  0  0
    8.5955   -6.0705   17.3996 C   0  0  0  0  0  0  0  0  0  0  0  0
    4.6223   -8.3832   16.5030 C   0  0  0  0  0  0  0  0  0  0  0  0
   12.4690   -5.2624   19.9024 C   0  0  0  0  0  0  0  0  0  0  0  0
    3.2548   -9.9919   17.4189 C   0  0  0  0  0  0  0  0  0  0  0  0
   12.4767   -4.7393   22.1790 C   0  0  0  0  0  0  0  0  0  0  0  0
    7.8593   -5.3772   15.3569 N   0  0  0  0  0  0  0  0  0  0  0  0
    7.4412   -6.9038   16.9283 C   0  0  0  0  0  0  0  0  0  0  0  0
  1 21  4  0
  1 23  4  0
  2  5  1  0
  2 13  4  0
  2 16  4  0
  3  6  4  0
  3  7  4  0
  4 13  4  0
  4 19  4  0
  4 24  4  0
  6 23  4  0
  7 16  1  0
  7 21  4  0
  8 18  1  0
  9 20  4  0
  9 22  4  0
 10 17  1  0
 10 25  1  0
 11 16  4  0
 11 19  4  0
 12 15  4  0
 12 22  4  0
 14 24  4  0
 14 25  4  0
 15 17  4  0
 17 20  4  0
 18 23  1  0
 19 25  4  0
M  END
$$$$

 Created by Python create_sdf_string function

 25 28  0  0  0  0  0  0  0  0999 V2000
   13.1533   -5.2399   21.0682 C   0  0  0  0  0  0  0  0  0  0  0  0
   10.4729   -4.0295   17.6135 C   0  0  0  0  0  0  0  0  0  0  0  0
   10.4789   -4.3641   20.9564 C   0  0  0  0  0  0  0  0  0  0  0  0
    8.7421   -5.1412   16.3650 C   0  0  0  0  0  0  0  0  0  0  0  0
   11.4353   -2.9204   17.8044 C   0  0  0  0  0  0  0  0  0  0  0  0
   11.1529   -4.3028   22.1277 C   0  0  0  0  0  0  0  0  0  0  0  0
   11.1290   -4.8502   19.8052 C   0  0  0  0  0  0  0  0  0  0  0  0
   12.4329   -4.2159   24.4224 C   0  0  0  0  0  0  0  0  0  0  0  0
    3.4740   -9.0387   16.5022 C   0  0  0  0  0  0  0  0  0  0  0  0
    6.8384   -7.9290   17.5282 N   0  0  0  0  0  0  0  0  0  0  0  0
    9.4126   -5.9853   18.4899 C   0  0  0  0  0  0  0  0  0  0  0  0
    4.2064  -10.3242   18.3302 C   0  0  0  0  0  0  0  0  0  0  0  0
    9.6599   -4.1551   16.4796 N   0  0  0  0  0  0  0  0  0  0  0  0
    7.0644   -6.4612   15.7375 N   0  0  0  0  0  0  0  0  0  0  0  0
    5.3549   -9.6322   18.3190 C   0  0  0  0  0  0  0  0  0  0  0  0
   10.3704   -4.9638   18.6510 C   0  0  0  0  0  0  0  0  0  0  0  0
    5.5935   -8.6419   17.4234 C   0  0  0  0  0  0  0  0  0  0  0  0
   13.0726   -4.6648   23.3394 O   0  0  0  0  0  0  0  0  0  0  0  0
    8.5955   -6.0705   17.3996 C   0  0  0  0  0  0  0  0  0  0  0  0
    4.6223   -8.3832   16.5030 C   0  0  0  0  0  0  0  0  0  0  0  0
   12.4690   -5.2624   19.9024 C   0  0  0  0  0  0  0  0  0  0  0  0
    3.2548   -9.9919   17.4189 C   0  0  0  0  0  0  0  0  0  0  0  0
   12.4767   -4.7393   22.1790 C   0  0  0  0  0  0  0  0  0  0  0  0
    7.8593   -5.3772   15.3569 N   0  0  0  0  0  0  0  0  0  0  0  0
    7.4412   -6.9038   16.9283 C   0  0  0  0  0  0  0  0  0  0  0  0
  1 21  4  0
  1 23  4  0
  2  5  1  0
  2 13  4  0
  2 16  4  0
  3  6  4  0
  3  7  4  0
  4 13  4  0
  4 19  4  0
  4 24  4  0
  6 23  4  0
  7 16  1  0
  7 21  4  0
  8 18  1  0
  9 20  4  0
  9 22  4  0
 10 17  1  0
 10 25  1  0
 11 16  4  0
 11 19  4  0
 12 15  4  0
 12 22  4  0
 14 24  4  0
 14 25  4  0
 15 17  4  0
 17 20  4  0
 18 23  1  0
 19 25  4  0
M  END
$$$$

 Created by Python create_sdf_string function

 25 28  0  0  0  0  0  0  0  0999 V2000
   13.1533   -5.2399   21.0682 C   0  0  0  0  0  0  0  0  0  0  0  0
   10.4729   -4.0295   17.6135 C   0  0  0  0  0  0  0  0  0  0  0  0
   10.4789   -4.3641   20.9564 C   0  0  0  0  0  0  0  0  0  0  0  0
    8.7421   -5.1412   16.3650 C   0  0  0  0  0  0  0  0  0  0  0  0
   11.4353   -2.9204   17.8044 C   0  0  0  0  0  0  0  0  0  0  0  0
   11.1529   -4.3028   22.1277 C   0  0  0  0  0  0  0  0  0  0  0  0
   11.1290   -4.8502   19.8052 C   0  0  0  0  0  0  0  0  0  0  0  0
   12.4329   -4.2159   24.4224 C   0  0  0  0  0  0  0  0  0  0  0  0
    3.4740   -9.0387   16.5022 C   0  0  0  0  0  0  0  0  0  0  0  0
    6.8384   -7.9290   17.5282 N   0  0  0  0  0  0  0  0  0  0  0  0
    9.4126   -5.9853   18.4899 C   0  0  0  0  0  0  0  0  0  0  0  0
    4.2064  -10.3242   18.3302 C   0  0  0  0  0  0  0  0  0  0  0  0
    9.6599   -4.1551   16.4796 N   0  0  0  0  0  0  0  0  0  0  0  0
    7.0644   -6.4612   15.7375 N   0  0  0  0  0  0  0  0  0  0  0  0
    5.3549   -9.6322   18.3190 C   0  0  0  0  0  0  0  0  0  0  0  0
   10.3704   -4.9638   18.6510 C   0  0  0  0  0  0  0  0  0  0  0  0
    5.5935   -8.6419   17.4234 C   0  0  0  0  0  0  0  0  0  0  0  0
   13.0726   -4.6648   23.3394 O   0  0  0  0  0  0  0  0  0  0  0  0
    8.5955   -6.0705   17.3996 C   0  0  0  0  0  0  0  0  0  0  0  0
    4.6223   -8.3832   16.5030 C   0  0  0  0  0  0  0  0  0  0  0  0
   12.4690   -5.2624   19.9024 C   0  0  0  0  0  0  0  0  0  0  0  0
    3.2548   -9.9919   17.4189 C   0  0  0  0  0  0  0  0  0  0  0  0
   12.4767   -4.7393   22.1790 C   0  0  0  0  0  0  0  0  0  0  0  0
    7.8593   -5.3772   15.3569 N   0  0  0  0  0  0  0  0  0  0  0  0
    7.4412   -6.9038   16.9283 C   0  0  0  0  0  0  0  0  0  0  0  0
  1 21  4  0
  1 23  4  0
  2  5  1  0
  2 13  4  0
  2 16  4  0
  3  6  4  0
  3  7  4  0
  4 13  4  0
  4 19  4  0
  4 24  4  0
  6 23  4  0
  7 16  1  0
  7 21  4  0
  8 18  1  0
  9 20  4  0
  9 22  4  0
 10 17  1  0
 10 25  1  0
 11 16  4  0
 11 19  4  0
 12 15  4  0
 12 22  4  0
 14 24  4  0
 14 25  4  0
 15 17  4  0
 17 20  4  0
 18 23  1  0
 19 25  4  0
M  END
$$$$

 Created by Python create_sdf_string function

 25 28  0  0  0  0  0  0  0  0999 V2000
   13.1533   -5.2399   21.0682 C   0  0  0  0  0  0  0  0  0  0  0  0
   10.4729   -4.0295   17.6135 C   0  0  0  0  0  0  0  0  0  0  0  0
   10.4789   -4.3641   20.9564 C   0  0  0  0  0  0  0  0  0  0  0  0
    8.7421   -5.1412   16.3650 C   0  0  0  0  0  0  0  0  0  0  0  0
   11.4353   -2.9204   17.8044 C   0  0  0  0  0  0  0  0  0  0  0  0
   11.1529   -4.3028   22.1277 C   0  0  0  0  0  0  0  0  0  0  0  0
   11.1290   -4.8502   19.8052 C   0  0  0  0  0  0  0  0  0  0  0  0
   12.4329   -4.2159   24.4224 C   0  0  0  0  0  0  0  0  0  0  0  0
    3.4740   -9.0387   16.5022 C   0  0  0  0  0  0  0  0  0  0  0  0
    6.8384   -7.9290   17.5282 N   0  0  0  0  0  0  0  0  0  0  0  0
    9.4126   -5.9853   18.4899 C   0  0  0  0  0  0  0  0  0  0  0  0
    4.2064  -10.3242   18.3302 C   0  0  0  0  0  0  0  0  0  0  0  0
    9.6599   -4.1551   16.4796 N   0  0  0  0  0  0  0  0  0  0  0  0
    7.0644   -6.4612   15.7375 N   0  0  0  0  0  0  0  0  0  0  0  0
    5.3549   -9.6322   18.3190 C   0  0  0  0  0  0  0  0  0  0  0  0
   10.3704   -4.9638   18.6510 C   0  0  0  0  0  0  0  0  0  0  0  0
    5.5935   -8.6419   17.4234 C   0  0  0  0  0  0  0  0  0  0  0  0
   13.0726   -4.6648   23.3394 O   0  0  0  0  0  0  0  0  0  0  0  0
    8.5955   -6.0705   17.3996 C   0  0  0  0  0  0  0  0  0  0  0  0
    4.6223   -8.3832   16.5030 C   0  0  0  0  0  0  0  0  0  0  0  0
   12.4690   -5.2624   19.9024 C   0  0  0  0  0  0  0  0  0  0  0  0
    3.2548   -9.9919   17.4189 C   0  0  0  0  0  0  0  0  0  0  0  0
   12.4767   -4.7393   22.1790 C   0  0  0  0  0  0  0  0  0  0  0  0
    7.8593   -5.3772   15.3569 N   0  0  0  0  0  0  0  0  0  0  0  0
    7.4412   -6.9038   16.9283 C   0  0  0  0  0  0  0  0  0  0  0  0
  1 21  4  0
  1 23  4  0
  2  5  1  0
  2 13  4  0
  2 16  4  0
  3  6  4  0
  3  7  4  0
  4 13  4  0
  4 19  4  0
  4 24  4  0
  6 23  4  0
  7 16  1  0
  7 21  4  0
  8 18  1  0
  9 20  4  0
  9 22  4  0
 10 17  1  0
 10 25  1  0
 11 16  4  0
 11 19  4  0
 12 15  4  0
 12 22  4  0
 14 24  4  0
 14 25  4  0
 15 17  4  0
 17 20  4  0
 18 23  1  0
 19 25  4  0
M  END
$$$$

 Created by Python create_sdf_string function

 25 28  0  0  0  0  0  0  0  0999 V2000
   13.1533   -5.2399   21.0682 C   0  0  0  0  0  0  0  0  0  0  0  0
   10.4729   -4.0295   17.6135 C   0  0  0  0  0  0  0  0  0  0  0  0
   10.4789   -4.3641   20.9564 C   0  0  0  0  0  0  0  0  0  0  0  0
    8.7421   -5.1412   16.3650 C   0  0  0  0  0  0  0  0  0  0  0  0
   11.4353   -2.9204   17.8044 C   0  0  0  0  0  0  0  0  0  0  0  0
   11.1529   -4.3028   22.1277 C   0  0  0  0  0  0  0  0  0  0  0  0
   11.1290   -4.8502   19.8052 C   0  0  0  0  0  0  0  0  0  0  0  0
   12.4329   -4.2159   24.4224 C   0  0  0  0  0  0  0  0  0  0  0  0
    3.4740   -9.0387   16.5022 C   0  0  0  0  0  0  0  0  0  0  0  0
    6.8384   -7.9290   17.5282 N   0  0  0  0  0  0  0  0  0  0  0  0
    9.4126   -5.9853   18.4899 C   0  0  0  0  0  0  0  0  0  0  0  0
    4.2064  -10.3242   18.3302 C   0  0  0  0  0  0  0  0  0  0  0  0
    9.6599   -4.1551   16.4796 N   0  0  0  0  0  0  0  0  0  0  0  0
    7.0644   -6.4612   15.7375 N   0  0  0  0  0  0  0  0  0  0  0  0
    5.3549   -9.6322   18.3190 C   0  0  0  0  0  0  0  0  0  0  0  0
   10.3704   -4.9638   18.6510 C   0  0  0  0  0  0  0  0  0  0  0  0
    5.5935   -8.6419   17.4234 C   0  0  0  0  0  0  0  0  0  0  0  0
   13.0726   -4.6648   23.3394 O   0  0  0  0  0  0  0  0  0  0  0  0
    8.5955   -6.0705   17.3996 C   0  0  0  0  0  0  0  0  0  0  0  0
    4.6223   -8.3832   16.5030 C   0  0  0  0  0  0  0  0  0  0  0  0
   12.4690   -5.2624   19.9024 C   0  0  0  0  0  0  0  0  0  0  0  0
    3.2548   -9.9919   17.4189 C   0  0  0  0  0  0  0  0  0  0  0  0
   12.4767   -4.7393   22.1790 C   0  0  0  0  0  0  0  0  0  0  0  0
    7.8593   -5.3772   15.3569 N   0  0  0  0  0  0  0  0  0  0  0  0
    7.4412   -6.9038   16.9283 C   0  0  0  0  0  0  0  0  0  0  0  0
  1 21  4  0
  1 23  4  0
  2  5  1  0
  2 13  4  0
  2 16  4  0
  3  6  4  0
  3  7  4  0
  4 13  4  0
  4 19  4  0
  4 24  4  0
  6 23  4  0
  7 16  1  0
  7 21  4  0
  8 18  1  0
  9 20  4  0
  9 22  4  0
 10 17  1  0
 10 25  1  0
 11 16  4  0
 11 19  4  0
 12 15  4  0
 12 22  4  0
 14 24  4  0
 14 25  4  0
 15 17  4  0
 17 20  4  0
 18 23  1  0
 19 25  4  0
M  END
$$$$

 Created by Python create_sdf_string function

 25 28  0  0  0  0  0  0  0  0999 V2000
   13.1533   -5.2399   21.0682 C   0  0  0  0  0  0  0  0  0  0  0  0
   10.4729   -4.0295   17.6135 C   0  0  0  0  0  0  0  0  0  0  0  0
   10.4789   -4.3641   20.9564 C   0  0  0  0  0  0  0  0  0  0  0  0
    8.7421   -5.1412   16.3650 C   0  0  0  0  0  0  0  0  0  0  0  0
   11.4353   -2.9204   17.8044 C   0  0  0  0  0  0  0  0  0  0  0  0
   11.1529   -4.3028   22.1277 C   0  0  0  0  0  0  0  0  0  0  0  0
   11.1290   -4.8502   19.8052 C   0  0  0  0  0  0  0  0  0  0  0  0
   12.4329   -4.2159   24.4224 C   0  0  0  0  0  0  0  0  0  0  0  0
    3.4740   -9.0387   16.5022 C   0  0  0  0  0  0  0  0  0  0  0  0
    6.8384   -7.9290   17.5282 N   0  0  0  0  0  0  0  0  0  0  0  0
    9.4126   -5.9853   18.4899 C   0  0  0  0  0  0  0  0  0  0  0  0
    4.2064  -10.3242   18.3302 C   0  0  0  0  0  0  0  0  0  0  0  0
    9.6599   -4.1551   16.4796 N   0  0  0  0  0  0  0  0  0  0  0  0
    7.0644   -6.4612   15.7375 N   0  0  0  0  0  0  0  0  0  0  0  0
    5.3549   -9.6322   18.3190 C   0  0  0  0  0  0  0  0  0  0  0  0
   10.3704   -4.9638   18.6510 C   0  0  0  0  0  0  0  0  0  0  0  0
    5.5935   -8.6419   17.4234 C   0  0  0  0  0  0  0  0  0  0  0  0
   13.0726   -4.6648   23.3394 O   0  0  0  0  0  0  0  0  0  0  0  0
    8.5955   -6.0705   17.3996 C   0  0  0  0  0  0  0  0  0  0  0  0
    4.6223   -8.3832   16.5030 C   0  0  0  0  0  0  0  0  0  0  0  0
   12.4690   -5.2624   19.9024 C   0  0  0  0  0  0  0  0  0  0  0  0
    3.2548   -9.9919   17.4189 C   0  0  0  0  0  0  0  0  0  0  0  0
   12.4767   -4.7393   22.1790 C   0  0  0  0  0  0  0  0  0  0  0  0
    7.8593   -5.3772   15.3569 N   0  0  0  0  0  0  0  0  0  0  0  0
    7.4412   -6.9038   16.9283 C   0  0  0  0  0  0  0  0  0  0  0  0
  1 21  4  0
  1 23  4  0
  2  5  1  0
  2 13  4  0
  2 16  4  0
  3  6  4  0
  3  7  4  0
  4 13  4  0
  4 19  4  0
  4 24  4  0
  6 23  4  0
  7 16  1  0
  7 21  4  0
  8 18  1  0
  9 20  4  0
  9 22  4  0
 10 17  1  0
 10 25  1  0
 11 16  4  0
 11 19  4  0
 12 15  4  0
 12 22  4  0
 14 24  4  0
 14 25  4  0
 15 17  4  0
 17 20  4  0
 18 23  1  0
 19 25  4  0
M  END
$$$$

 Created by Python create_sdf_string function

 25 28  0  0  0  0  0  0  0  0999 V2000
   13.1533   -5.2399   21.0682 C   0  0  0  0  0  0  0  0  0  0  0  0
   10.4729   -4.0295   17.6135 C   0  0  0  0  0  0  0  0  0  0  0  0
   10.4789   -4.3641   20.9564 C   0  0  0  0  0  0  0  0  0  0  0  0
    8.7421   -5.1412   16.3650 C   0  0  0  0  0  0  0  0  0  0  0  0
   11.4353   -2.9204   17.8044 C   0  0  0  0  0  0  0  0  0  0  0  0
   11.1529   -4.3028   22.1277 C   0  0  0  0  0  0  0  0  0  0  0  0
   11.1290   -4.8502   19.8052 C   0  0  0  0  0  0  0  0  0  0  0  0
   12.4329   -4.2159   24.4224 C   0  0  0  0  0  0  0  0  0  0  0  0
    3.4740   -9.0387   16.5022 C   0  0  0  0  0  0  0  0  0  0  0  0
    6.8384   -7.9290   17.5282 N   0  0  0  0  0  0  0  0  0  0  0  0
    9.4126   -5.9853   18.4899 C   0  0  0  0  0  0  0  0  0  0  0  0
    4.2064  -10.3242   18.3302 C   0  0  0  0  0  0  0  0  0  0  0  0
    9.6599   -4.1551   16.4796 N   0  0  0  0  0  0  0  0  0  0  0  0
    7.0644   -6.4612   15.7375 N   0  0  0  0  0  0  0  0  0  0  0  0
    5.3549   -9.6322   18.3190 C   0  0  0  0  0  0  0  0  0  0  0  0
   10.3704   -4.9638   18.6510 C   0  0  0  0  0  0  0  0  0  0  0  0
    5.5935   -8.6419   17.4234 C   0  0  0  0  0  0  0  0  0  0  0  0
   13.0726   -4.6648   23.3394 O   0  0  0  0  0  0  0  0  0  0  0  0
    8.5955   -6.0705   17.3996 C   0  0  0  0  0  0  0  0  0  0  0  0
    4.6223   -8.3832   16.5030 C   0  0  0  0  0  0  0  0  0  0  0  0
   12.4690   -5.2624   19.9024 C   0  0  0  0  0  0  0  0  0  0  0  0
    3.2548   -9.9919   17.4189 C   0  0  0  0  0  0  0  0  0  0  0  0
   12.4767   -4.7393   22.1790 C   0  0  0  0  0  0  0  0  0  0  0  0
    7.8593   -5.3772   15.3569 N   0  0  0  0  0  0  0  0  0  0  0  0
    7.4412   -6.9038   16.9283 C   0  0  0  0  0  0  0  0  0  0  0  0
  1 21  4  0
  1 23  4  0
  2  5  1  0
  2 13  4  0
  2 16  4  0
  3  6  4  0
  3  7  4  0
  4 13  4  0
  4 19  4  0
  4 24  4  0
  6 23  4  0
  7 16  1  0
  7 21  4  0
  8 18  1  0
  9 20  4  0
  9 22  4  0
 10 17  1  0
 10 25  1  0
 11 16  4  0
 11 19  4  0
 12 15  4  0
 12 22  4  0
 14 24  4  0
 14 25  4  0
 15 17  4  0
 17 20  4  0
 18 23  1  0
 19 25  4  0
M  END
$$$$

 Created by Python create_sdf_string function

 25 28  0  0  0  0  0  0  0  0999 V2000
   13.1533   -5.2399   21.0682 C   0  0  0  0  0  0  0  0  0  0  0  0
   10.4729   -4.0295   17.6135 C   0  0  0  0  0  0  0  0  0  0  0  0
   10.4789   -4.3641   20.9564 C   0  0  0  0  0  0  0  0  0  0  0  0
    8.7421   -5.1412   16.3650 C   0  0  0  0  0  0  0  0  0  0  0  0
   11.4353   -2.9204   17.8044 C   0  0  0  0  0  0  0  0  0  0  0  0
   11.1529   -4.3028   22.1277 C   0  0  0  0  0  0  0  0  0  0  0  0
   11.1290   -4.8502   19.8052 C   0  0  0  0  0  0  0  0  0  0  0  0
   12.4329   -4.2159   24.4224 C   0  0  0  0  0  0  0  0  0  0  0  0
    3.4740   -9.0387   16.5022 C   0  0  0  0  0  0  0  0  0  0  0  0
    6.8384   -7.9290   17.5282 N   0  0  0  0  0  0  0  0  0  0  0  0
    9.4126   -5.9853   18.4899 C   0  0  0  0  0  0  0  0  0  0  0  0
    4.2064  -10.3242   18.3302 C   0  0  0  0  0  0  0  0  0  0  0  0
    9.6599   -4.1551   16.4796 N   0  0  0  0  0  0  0  0  0  0  0  0
    7.0644   -6.4612   15.7375 N   0  0  0  0  0  0  0  0  0  0  0  0
    5.3549   -9.6322   18.3190 C   0  0  0  0  0  0  0  0  0  0  0  0
   10.3704   -4.9638   18.6510 C   0  0  0  0  0  0  0  0  0  0  0  0
    5.5935   -8.6419   17.4234 C   0  0  0  0  0  0  0  0  0  0  0  0
   13.0726   -4.6648   23.3394 O   0  0  0  0  0  0  0  0  0  0  0  0
    8.5955   -6.0705   17.3996 C   0  0  0  0  0  0  0  0  0  0  0  0
    4.6223   -8.3832   16.5030 C   0  0  0  0  0  0  0  0  0  0  0  0
   12.4690   -5.2624   19.9024 C   0  0  0  0  0  0  0  0  0  0  0  0
    3.2548   -9.9919   17.4189 C   0  0  0  0  0  0  0  0  0  0  0  0
   12.4767   -4.7393   22.1790 C   0  0  0  0  0  0  0  0  0  0  0  0
    7.8593   -5.3772   15.3569 N   0  0  0  0  0  0  0  0  0  0  0  0
    7.4412   -6.9038   16.9283 C   0  0  0  0  0  0  0  0  0  0  0  0
  1 21  4  0
  1 23  4  0
  2  5  1  0
  2 13  4  0
  2 16  4  0
  3  6  4  0
  3  7  4  0
  4 13  4  0
  4 19  4  0
  4 24  4  0
  6 23  4  0
  7 16  1  0
  7 21  4  0
  8 18  1  0
  9 20  4  0
  9 22  4  0
 10 17  1  0
 10 25  1  0
 11 16  4  0
 11 19  4  0
 12 15  4  0
 12 22  4  0
 14 24  4  0
 14 25  4  0
 15 17  4  0
 17 20  4  0
 18 23  1  0
 19 25  4  0
M  END
$$$$

 Created by Python create_sdf_string function

 25 28  0  0  0  0  0  0  0  0999 V2000
   13.1533   -5.2399   21.0682 C   0  0  0  0  0  0  0  0  0  0  0  0
   10.4729   -4.0295   17.6135 C   0  0  0  0  0  0  0  0  0  0  0  0
   10.4789   -4.3641   20.9564 C   0  0  0  0  0  0  0  0  0  0  0  0
    8.7421   -5.1412   16.3650 C   0  0  0  0  0  0  0  0  0  0  0  0
   11.4353   -2.9204   17.8044 C   0  0  0  0  0  0  0  0  0  0  0  0
   11.1529   -4.3028   22.1277 C   0  0  0  0  0  0  0  0  0  0  0  0
   11.1290   -4.8502   19.8052 C   0  0  0  0  0  0  0  0  0  0  0  0
   12.4329   -4.2159   24.4224 C   0  0  0  0  0  0  0  0  0  0  0  0
    3.4740   -9.0387   16.5022 C   0  0  0  0  0  0  0  0  0  0  0  0
    6.8384   -7.9290   17.5282 N   0  0  0  0  0  0  0  0  0  0  0  0
    9.4126   -5.9853   18.4899 C   0  0  0  0  0  0  0  0  0  0  0  0
    4.2064  -10.3242   18.3302 C   0  0  0  0  0  0  0  0  0  0  0  0
    9.6599   -4.1551   16.4796 N   0  0  0  0  0  0  0  0  0  0  0  0
    7.0644   -6.4612   15.7375 N   0  0  0  0  0  0  0  0  0  0  0  0
    5.3549   -9.6322   18.3190 C   0  0  0  0  0  0  0  0  0  0  0  0
   10.3704   -4.9638   18.6510 C   0  0  0  0  0  0  0  0  0  0  0  0
    5.5935   -8.6419   17.4234 C   0  0  0  0  0  0  0  0  0  0  0  0
   13.0726   -4.6648   23.3394 O   0  0  0  0  0  0  0  0  0  0  0  0
    8.5955   -6.0705   17.3996 C   0  0  0  0  0  0  0  0  0  0  0  0
    4.6223   -8.3832   16.5030 C   0  0  0  0  0  0  0  0  0  0  0  0
   12.4690   -5.2624   19.9024 C   0  0  0  0  0  0  0  0  0  0  0  0
    3.2548   -9.9919   17.4189 C   0  0  0  0  0  0  0  0  0  0  0  0
   12.4767   -4.7393   22.1790 C   0  0  0  0  0  0  0  0  0  0  0  0
    7.8593   -5.3772   15.3569 N   0  0  0  0  0  0  0  0  0  0  0  0
    7.4412   -6.9038   16.9283 C   0  0  0  0  0  0  0  0  0  0  0  0
  1 21  4  0
  1 23  4  0
  2  5  1  0
  2 13  4  0
  2 16  4  0
  3  6  4  0
  3  7  4  0
  4 13  4  0
  4 19  4  0
  4 24  4  0
  6 23  4  0
  7 16  1  0
  7 21  4  0
  8 18  1  0
  9 20  4  0
  9 22  4  0
 10 17  1  0
 10 25  1  0
 11 16  4  0
 11 19  4  0
 12 15  4  0
 12 22  4  0
 14 24  4  0
 14 25  4  0
 15 17  4  0
 17 20  4  0
 18 23  1  0
 19 25  4  0
M  END
$$$$

 Created by Python create_sdf_string function

 25 28  0  0  0  0  0  0  0  0999 V2000
   13.1533   -5.2399   21.0682 C   0  0  0  0  0  0  0  0  0  0  0  0
   10.4729   -4.0295   17.6135 C   0  0  0  0  0  0  0  0  0  0  0  0
   10.4789   -4.3641   20.9564 C   0  0  0  0  0  0  0  0  0  0  0  0
    8.7421   -5.1412   16.3650 C   0  0  0  0  0  0  0  0  0  0  0  0
   11.4353   -2.9204   17.8044 C   0  0  0  0  0  0  0  0  0  0  0  0
   11.1529   -4.3028   22.1277 C   0  0  0  0  0  0  0  0  0  0  0  0
   11.1290   -4.8502   19.8052 C   0  0  0  0  0  0  0  0  0  0  0  0
   12.4329   -4.2159   24.4224 C   0  0  0  0  0  0  0  0  0  0  0  0
    3.4740   -9.0387   16.5022 C   0  0  0  0  0  0  0  0  0  0  0  0
    6.8384   -7.9290   17.5282 N   0  0  0  0  0  0  0  0  0  0  0  0
    9.4126   -5.9853   18.4899 C   0  0  0  0  0  0  0  0  0  0  0  0
    4.2064  -10.3242   18.3302 C   0  0  0  0  0  0  0  0  0  0  0  0
    9.6599   -4.1551   16.4796 N   0  0  0  0  0  0  0  0  0  0  0  0
    7.0644   -6.4612   15.7375 N   0  0  0  0  0  0  0  0  0  0  0  0
    5.3549   -9.6322   18.3190 C   0  0  0  0  0  0  0  0  0  0  0  0
   10.3704   -4.9638   18.6510 C   0  0  0  0  0  0  0  0  0  0  0  0
    5.5935   -8.6419   17.4234 C   0  0  0  0  0  0  0  0  0  0  0  0
   13.0726   -4.6648   23.3394 O   0  0  0  0  0  0  0  0  0  0  0  0
    8.5955   -6.0705   17.3996 C   0  0  0  0  0  0  0  0  0  0  0  0
    4.6223   -8.3832   16.5030 C   0  0  0  0  0  0  0  0  0  0  0  0
   12.4690   -5.2624   19.9024 C   0  0  0  0  0  0  0  0  0  0  0  0
    3.2548   -9.9919   17.4189 C   0  0  0  0  0  0  0  0  0  0  0  0
   12.4767   -4.7393   22.1790 C   0  0  0  0  0  0  0  0  0  0  0  0
    7.8593   -5.3772   15.3569 N   0  0  0  0  0  0  0  0  0  0  0  0
    7.4412   -6.9038   16.9283 C   0  0  0  0  0  0  0  0  0  0  0  0
  1 21  4  0
  1 23  4  0
  2  5  1  0
  2 13  4  0
  2 16  4  0
  3  6  4  0
  3  7  4  0
  4 13  4  0
  4 19  4  0
  4 24  4  0
  6 23  4  0
  7 16  1  0
  7 21  4  0
  8 18  1  0
  9 20  4  0
  9 22  4  0
 10 17  1  0
 10 25  1  0
 11 16  4  0
 11 19  4  0
 12 15  4  0
 12 22  4  0
 14 24  4  0
 14 25  4  0
 15 17  4  0
 17 20  4  0
 18 23  1  0
 19 25  4  0
M  END
$$$$

 Created by Python create_sdf_string function

 25 28  0  0  0  0  0  0  0  0999 V2000
   13.1533   -5.2399   21.0682 C   0  0  0  0  0  0  0  0  0  0  0  0
   10.4729   -4.0295   17.6135 C   0  0  0  0  0  0  0  0  0  0  0  0
   10.4789   -4.3641   20.9564 C   0  0  0  0  0  0  0  0  0  0  0  0
    8.7421   -5.1412   16.3650 C   0  0  0  0  0  0  0  0  0  0  0  0
   11.4353   -2.9204   17.8044 C   0  0  0  0  0  0  0  0  0  0  0  0
   11.1529   -4.3028   22.1277 C   0  0  0  0  0  0  0  0  0  0  0  0
   11.1290   -4.8502   19.8052 C   0  0  0  0  0  0  0  0  0  0  0  0
   12.4329   -4.2159   24.4224 C   0  0  0  0  0  0  0  0  0  0  0  0
    3.4740   -9.0387   16.5022 C   0  0  0  0  0  0  0  0  0  0  0  0
    6.8384   -7.9290   17.5282 N   0  0  0  0  0  0  0  0  0  0  0  0
    9.4126   -5.9853   18.4899 C   0  0  0  0  0  0  0  0  0  0  0  0
    4.2064  -10.3242   18.3302 C   0  0  0  0  0  0  0  0  0  0  0  0
    9.6599   -4.1551   16.4796 N   0  0  0  0  0  0  0  0  0  0  0  0
    7.0644   -6.4612   15.7375 N   0  0  0  0  0  0  0  0  0  0  0  0
    5.3549   -9.6322   18.3190 C   0  0  0  0  0  0  0  0  0  0  0  0
   10.3704   -4.9638   18.6510 C   0  0  0  0  0  0  0  0  0  0  0  0
    5.5935   -8.6419   17.4234 C   0  0  0  0  0  0  0  0  0  0  0  0
   13.0726   -4.6648   23.3394 O   0  0  0  0  0  0  0  0  0  0  0  0
    8.5955   -6.0705   17.3996 C   0  0  0  0  0  0  0  0  0  0  0  0
    4.6223   -8.3832   16.5030 C   0  0  0  0  0  0  0  0  0  0  0  0
   12.4690   -5.2624   19.9024 C   0  0  0  0  0  0  0  0  0  0  0  0
    3.2548   -9.9919   17.4189 C   0  0  0  0  0  0  0  0  0  0  0  0
   12.4767   -4.7393   22.1790 C   0  0  0  0  0  0  0  0  0  0  0  0
    7.8593   -5.3772   15.3569 N   0  0  0  0  0  0  0  0  0  0  0  0
    7.4412   -6.9038   16.9283 C   0  0  0  0  0  0  0  0  0  0  0  0
  1 21  4  0
  1 23  4  0
  2  5  1  0
  2 13  4  0
  2 16  4  0
  3  6  4  0
  3  7  4  0
  4 13  4  0
  4 19  4  0
  4 24  4  0
  6 23  4  0
  7 16  1  0
  7 21  4  0
  8 18  1  0
  9 20  4  0
  9 22  4  0
 10 17  1  0
 10 25  1  0
 11 16  4  0
 11 19  4  0
 12 15  4  0
 12 22  4  0
 14 24  4  0
 14 25  4  0
 15 17  4  0
 17 20  4  0
 18 23  1  0
 19 25  4  0
M  END
$$$$

 Created by Python create_sdf_string function

 25 28  0  0  0  0  0  0  0  0999 V2000
   13.1533   -5.2399   21.0682 C   0  0  0  0  0  0  0  0  0  0  0  0
   10.4729   -4.0295   17.6135 C   0  0  0  0  0  0  0  0  0  0  0  0
   10.4789   -4.3641   20.9564 C   0  0  0  0  0  0  0  0  0  0  0  0
    8.7421   -5.1412   16.3650 C   0  0  0  0  0  0  0  0  0  0  0  0
   11.4353   -2.9204   17.8044 C   0  0  0  0  0  0  0  0  0  0  0  0
   11.1529   -4.3028   22.1277 C   0  0  0  0  0  0  0  0  0  0  0  0
   11.1290   -4.8502   19.8052 C   0  0  0  0  0  0  0  0  0  0  0  0
   12.4329   -4.2159   24.4224 C   0  0  0  0  0  0  0  0  0  0  0  0
    3.4740   -9.0387   16.5022 C   0  0  0  0  0  0  0  0  0  0  0  0
    6.8384   -7.9290   17.5282 N   0  0  0  0  0  0  0  0  0  0  0  0
    9.4126   -5.9853   18.4899 C   0  0  0  0  0  0  0  0  0  0  0  0
    4.2064  -10.3242   18.3302 C   0  0  0  0  0  0  0  0  0  0  0  0
    9.6599   -4.1551   16.4796 N   0  0  0  0  0  0  0  0  0  0  0  0
    7.0644   -6.4612   15.7375 N   0  0  0  0  0  0  0  0  0  0  0  0
    5.3549   -9.6322   18.3190 C   0  0  0  0  0  0  0  0  0  0  0  0
   10.3704   -4.9638   18.6510 C   0  0  0  0  0  0  0  0  0  0  0  0
    5.5935   -8.6419   17.4234 C   0  0  0  0  0  0  0  0  0  0  0  0
   13.0726   -4.6648   23.3394 O   0  0  0  0  0  0  0  0  0  0  0  0
    8.5955   -6.0705   17.3996 C   0  0  0  0  0  0  0  0  0  0  0  0
    4.6223   -8.3832   16.5030 C   0  0  0  0  0  0  0  0  0  0  0  0
   12.4690   -5.2624   19.9024 C   0  0  0  0  0  0  0  0  0  0  0  0
    3.2548   -9.9919   17.4189 C   0  0  0  0  0  0  0  0  0  0  0  0
   12.4767   -4.7393   22.1790 C   0  0  0  0  0  0  0  0  0  0  0  0
    7.8593   -5.3772   15.3569 N   0  0  0  0  0  0  0  0  0  0  0  0
    7.4412   -6.9038   16.9283 C   0  0  0  0  0  0  0  0  0  0  0  0
  1 21  4  0
  1 23  4  0
  2  5  1  0
  2 13  4  0
  2 16  4  0
  3  6  4  0
  3  7  4  0
  4 13  4  0
  4 19  4  0
  4 24  4  0
  6 23  4  0
  7 16  1  0
  7 21  4  0
  8 18  1  0
  9 20  4  0
  9 22  4  0
 10 17  1  0
 10 25  1  0
 11 16  4  0
 11 19  4  0
 12 15  4  0
 12 22  4  0
 14 24  4  0
 14 25  4  0
 15 17  4  0
 17 20  4  0
 18 23  1  0
 19 25  4  0
M  END
$$$$

 Created by Python create_sdf_string function

 25 28  0  0  0  0  0  0  0  0999 V2000
   13.1533   -5.2399   21.0682 C   0  0  0  0  0  0  0  0  0  0  0  0
   10.4729   -4.0295   17.6135 C   0  0  0  0  0  0  0  0  0  0  0  0
   10.4789   -4.3641   20.9564 C   0  0  0  0  0  0  0  0  0  0  0  0
    8.7421   -5.1412   16.3650 C   0  0  0  0  0  0  0  0  0  0  0  0
   11.4353   -2.9204   17.8044 C   0  0  0  0  0  0  0  0  0  0  0  0
   11.1529   -4.3028   22.1277 C   0  0  0  0  0  0  0  0  0  0  0  0
   11.1290   -4.8502   19.8052 C   0  0  0  0  0  0  0  0  0  0  0  0
   12.4329   -4.2159   24.4224 C   0  0  0  0  0  0  0  0  0  0  0  0
    3.4740   -9.0387   16.5022 C   0  0  0  0  0  0  0  0  0  0  0  0
    6.8384   -7.9290   17.5282 N   0  0  0  0  0  0  0  0  0  0  0  0
    9.4126   -5.9853   18.4899 C   0  0  0  0  0  0  0  0  0  0  0  0
    4.2064  -10.3242   18.3302 C   0  0  0  0  0  0  0  0  0  0  0  0
    9.6599   -4.1551   16.4796 N   0  0  0  0  0  0  0  0  0  0  0  0
    7.0644   -6.4612   15.7375 N   0  0  0  0  0  0  0  0  0  0  0  0
    5.3549   -9.6322   18.3190 C   0  0  0  0  0  0  0  0  0  0  0  0
   10.3704   -4.9638   18.6510 C   0  0  0  0  0  0  0  0  0  0  0  0
    5.5935   -8.6419   17.4234 C   0  0  0  0  0  0  0  0  0  0  0  0
   13.0726   -4.6648   23.3394 O   0  0  0  0  0  0  0  0  0  0  0  0
    8.5955   -6.0705   17.3996 C   0  0  0  0  0  0  0  0  0  0  0  0
    4.6223   -8.3832   16.5030 C   0  0  0  0  0  0  0  0  0  0  0  0
   12.4690   -5.2624   19.9024 C   0  0  0  0  0  0  0  0  0  0  0  0
    3.2548   -9.9919   17.4189 C   0  0  0  0  0  0  0  0  0  0  0  0
   12.4767   -4.7393   22.1790 C   0  0  0  0  0  0  0  0  0  0  0  0
    7.8593   -5.3772   15.3569 N   0  0  0  0  0  0  0  0  0  0  0  0
    7.4412   -6.9038   16.9283 C   0  0  0  0  0  0  0  0  0  0  0  0
  1 21  4  0
  1 23  4  0
  2  5  1  0
  2 13  4  0
  2 16  4  0
  3  6  4  0
  3  7  4  0
  4 13  4  0
  4 19  4  0
  4 24  4  0
  6 23  4  0
  7 16  1  0
  7 21  4  0
  8 18  1  0
  9 20  4  0
  9 22  4  0
 10 17  1  0
 10 25  1  0
 11 16  4  0
 11 19  4  0
 12 15  4  0
 12 22  4  0
 14 24  4  0
 14 25  4  0
 15 17  4  0
 17 20  4  0
 18 23  1  0
 19 25  4  0
M  END
$$$$

 Created by Python create_sdf_string function

 25 28  0  0  0  0  0  0  0  0999 V2000
   13.1533   -5.2399   21.0682 C   0  0  0  0  0  0  0  0  0  0  0  0
   10.4729   -4.0295   17.6135 C   0  0  0  0  0  0  0  0  0  0  0  0
   10.4789   -4.3641   20.9564 C   0  0  0  0  0  0  0  0  0  0  0  0
    8.7421   -5.1412   16.3650 C   0  0  0  0  0  0  0  0  0  0  0  0
   11.4353   -2.9204   17.8044 C   0  0  0  0  0  0  0  0  0  0  0  0
   11.1529   -4.3028   22.1277 C   0  0  0  0  0  0  0  0  0  0  0  0
   11.1290   -4.8502   19.8052 C   0  0  0  0  0  0  0  0  0  0  0  0
   12.4329   -4.2159   24.4224 C   0  0  0  0  0  0  0  0  0  0  0  0
    3.4740   -9.0387   16.5022 C   0  0  0  0  0  0  0  0  0  0  0  0
    6.8384   -7.9290   17.5282 N   0  0  0  0  0  0  0  0  0  0  0  0
    9.4126   -5.9853   18.4899 C   0  0  0  0  0  0  0  0  0  0  0  0
    4.2064  -10.3242   18.3302 C   0  0  0  0  0  0  0  0  0  0  0  0
    9.6599   -4.1551   16.4796 N   0  0  0  0  0  0  0  0  0  0  0  0
    7.0644   -6.4612   15.7375 N   0  0  0  0  0  0  0  0  0  0  0  0
    5.3549   -9.6322   18.3190 C   0  0  0  0  0  0  0  0  0  0  0  0
   10.3704   -4.9638   18.6510 C   0  0  0  0  0  0  0  0  0  0  0  0
    5.5935   -8.6419   17.4234 C   0  0  0  0  0  0  0  0  0  0  0  0
   13.0726   -4.6648   23.3394 O   0  0  0  0  0  0  0  0  0  0  0  0
    8.5955   -6.0705   17.3996 C   0  0  0  0  0  0  0  0  0  0  0  0
    4.6223   -8.3832   16.5030 C   0  0  0  0  0  0  0  0  0  0  0  0
   12.4690   -5.2624   19.9024 C   0  0  0  0  0  0  0  0  0  0  0  0
    3.2548   -9.9919   17.4189 C   0  0  0  0  0  0  0  0  0  0  0  0
   12.4767   -4.7393   22.1790 C   0  0  0  0  0  0  0  0  0  0  0  0
    7.8593   -5.3772   15.3569 N   0  0  0  0  0  0  0  0  0  0  0  0
    7.4412   -6.9038   16.9283 C   0  0  0  0  0  0  0  0  0  0  0  0
  1 21  4  0
  1 23  4  0
  2  5  1  0
  2 13  4  0
  2 16  4  0
  3  6  4  0
  3  7  4  0
  4 13  4  0
  4 19  4  0
  4 24  4  0
  6 23  4  0
  7 16  1  0
  7 21  4  0
  8 18  1  0
  9 20  4  0
  9 22  4  0
 10 17  1  0
 10 25  1  0
 11 16  4  0
 11 19  4  0
 12 15  4  0
 12 22  4  0
 14 24  4  0
 14 25  4  0
 15 17  4  0
 17 20  4  0
 18 23  1  0
 19 25  4  0
M  END
$$$$

 Created by Python create_sdf_string function

 25 28  0  0  0  0  0  0  0  0999 V2000
   13.1533   -5.2399   21.0682 C   0  0  0  0  0  0  0  0  0  0  0  0
   10.4729   -4.0295   17.6135 C   0  0  0  0  0  0  0  0  0  0  0  0
   10.4789   -4.3641   20.9564 C   0  0  0  0  0  0  0  0  0  0  0  0
    8.7421   -5.1412   16.3650 C   0  0  0  0  0  0  0  0  0  0  0  0
   11.4353   -2.9204   17.8044 C   0  0  0  0  0  0  0  0  0  0  0  0
   11.1529   -4.3028   22.1277 C   0  0  0  0  0  0  0  0  0  0  0  0
   11.1290   -4.8502   19.8052 C   0  0  0  0  0  0  0  0  0  0  0  0
   12.4329   -4.2159   24.4224 C   0  0  0  0  0  0  0  0  0  0  0  0
    3.4740   -9.0387   16.5022 C   0  0  0  0  0  0  0  0  0  0  0  0
    6.8384   -7.9290   17.5282 N   0  0  0  0  0  0  0  0  0  0  0  0
    9.4126   -5.9853   18.4899 C   0  0  0  0  0  0  0  0  0  0  0  0
    4.2064  -10.3242   18.3302 C   0  0  0  0  0  0  0  0  0  0  0  0
    9.6599   -4.1551   16.4796 N   0  0  0  0  0  0  0  0  0  0  0  0
    7.0644   -6.4612   15.7375 N   0  0  0  0  0  0  0  0  0  0  0  0
    5.3549   -9.6322   18.3190 C   0  0  0  0  0  0  0  0  0  0  0  0
   10.3704   -4.9638   18.6510 C   0  0  0  0  0  0  0  0  0  0  0  0
    5.5935   -8.6419   17.4234 C   0  0  0  0  0  0  0  0  0  0  0  0
   13.0726   -4.6648   23.3394 O   0  0  0  0  0  0  0  0  0  0  0  0
    8.5955   -6.0705   17.3996 C   0  0  0  0  0  0  0  0  0  0  0  0
    4.6223   -8.3832   16.5030 C   0  0  0  0  0  0  0  0  0  0  0  0
   12.4690   -5.2624   19.9024 C   0  0  0  0  0  0  0  0  0  0  0  0
    3.2548   -9.9919   17.4189 C   0  0  0  0  0  0  0  0  0  0  0  0
   12.4767   -4.7393   22.1790 C   0  0  0  0  0  0  0  0  0  0  0  0
    7.8593   -5.3772   15.3569 N   0  0  0  0  0  0  0  0  0  0  0  0
    7.4412   -6.9038   16.9283 C   0  0  0  0  0  0  0  0  0  0  0  0
  1 21  4  0
  1 23  4  0
  2  5  1  0
  2 13  4  0
  2 16  4  0
  3  6  4  0
  3  7  4  0
  4 13  4  0
  4 19  4  0
  4 24  4  0
  6 23  4  0
  7 16  1  0
  7 21  4  0
  8 18  1  0
  9 20  4  0
  9 22  4  0
 10 17  1  0
 10 25  1  0
 11 16  4  0
 11 19  4  0
 12 15  4  0
 12 22  4  0
 14 24  4  0
 14 25  4  0
 15 17  4  0
 17 20  4  0
 18 23  1  0
 19 25  4  0
M  END
$$$$

 Created by Python create_sdf_string function

 25 28  0  0  0  0  0  0  0  0999 V2000
   13.1533   -5.2399   21.0682 C   0  0  0  0  0  0  0  0  0  0  0  0
   10.4729   -4.0295   17.6135 C   0  0  0  0  0  0  0  0  0  0  0  0
   10.4789   -4.3641   20.9564 C   0  0  0  0  0  0  0  0  0  0  0  0
    8.7421   -5.1412   16.3650 C   0  0  0  0  0  0  0  0  0  0  0  0
   11.4353   -2.9204   17.8044 C   0  0  0  0  0  0  0  0  0  0  0  0
   11.1529   -4.3028   22.1277 C   0  0  0  0  0  0  0  0  0  0  0  0
   11.1290   -4.8502   19.8052 C   0  0  0  0  0  0  0  0  0  0  0  0
   12.4329   -4.2159   24.4224 C   0  0  0  0  0  0  0  0  0  0  0  0
    3.4740   -9.0387   16.5022 C   0  0  0  0  0  0  0  0  0  0  0  0
    6.8384   -7.9290   17.5282 N   0  0  0  0  0  0  0  0  0  0  0  0
    9.4126   -5.9853   18.4899 C   0  0  0  0  0  0  0  0  0  0  0  0
    4.2064  -10.3242   18.3302 C   0  0  0  0  0  0  0  0  0  0  0  0
    9.6599   -4.1551   16.4796 N   0  0  0  0  0  0  0  0  0  0  0  0
    7.0644   -6.4612   15.7375 N   0  0  0  0  0  0  0  0  0  0  0  0
    5.3549   -9.6322   18.3190 C   0  0  0  0  0  0  0  0  0  0  0  0
   10.3704   -4.9638   18.6510 C   0  0  0  0  0  0  0  0  0  0  0  0
    5.5935   -8.6419   17.4234 C   0  0  0  0  0  0  0  0  0  0  0  0
   13.0726   -4.6648   23.3394 O   0  0  0  0  0  0  0  0  0  0  0  0
    8.5955   -6.0705   17.3996 C   0  0  0  0  0  0  0  0  0  0  0  0
    4.6223   -8.3832   16.5030 C   0  0  0  0  0  0  0  0  0  0  0  0
   12.4690   -5.2624   19.9024 C   0  0  0  0  0  0  0  0  0  0  0  0
    3.2548   -9.9919   17.4189 C   0  0  0  0  0  0  0  0  0  0  0  0
   12.4767   -4.7393   22.1790 C   0  0  0  0  0  0  0  0  0  0  0  0
    7.8593   -5.3772   15.3569 N   0  0  0  0  0  0  0  0  0  0  0  0
    7.4412   -6.9038   16.9283 C   0  0  0  0  0  0  0  0  0  0  0  0
  1 21  4  0
  1 23  4  0
  2  5  1  0
  2 13  4  0
  2 16  4  0
  3  6  4  0
  3  7  4  0
  4 13  4  0
  4 19  4  0
  4 24  4  0
  6 23  4  0
  7 16  1  0
  7 21  4  0
  8 18  1  0
  9 20  4  0
  9 22  4  0
 10 17  1  0
 10 25  1  0
 11 16  4  0
 11 19  4  0
 12 15  4  0
 12 22  4  0
 14 24  4  0
 14 25  4  0
 15 17  4  0
 17 20  4  0
 18 23  1  0
 19 25  4  0
M  END
$$$$

 Created by Python create_sdf_string function

 25 28  0  0  0  0  0  0  0  0999 V2000
   13.1533   -5.2399   21.0682 C   0  0  0  0  0  0  0  0  0  0  0  0
   10.4729   -4.0295   17.6135 C   0  0  0  0  0  0  0  0  0  0  0  0
   10.4789   -4.3641   20.9564 C   0  0  0  0  0  0  0  0  0  0  0  0
    8.7421   -5.1412   16.3650 C   0  0  0  0  0  0  0  0  0  0  0  0
   11.4353   -2.9204   17.8044 C   0  0  0  0  0  0  0  0  0  0  0  0
   11.1529   -4.3028   22.1277 C   0  0  0  0  0  0  0  0  0  0  0  0
   11.1290   -4.8502   19.8052 C   0  0  0  0  0  0  0  0  0  0  0  0
   12.4329   -4.2159   24.4224 C   0  0  0  0  0  0  0  0  0  0  0  0
    3.4740   -9.0387   16.5022 C   0  0  0  0  0  0  0  0  0  0  0  0
    6.8384   -7.9290   17.5282 N   0  0  0  0  0  0  0  0  0  0  0  0
    9.4126   -5.9853   18.4899 C   0  0  0  0  0  0  0  0  0  0  0  0
    4.2064  -10.3242   18.3302 C   0  0  0  0  0  0  0  0  0  0  0  0
    9.6599   -4.1551   16.4796 N   0  0  0  0  0  0  0  0  0  0  0  0
    7.0644   -6.4612   15.7375 N   0  0  0  0  0  0  0  0  0  0  0  0
    5.3549   -9.6322   18.3190 C   0  0  0  0  0  0  0  0  0  0  0  0
   10.3704   -4.9638   18.6510 C   0  0  0  0  0  0  0  0  0  0  0  0
    5.5935   -8.6419   17.4234 C   0  0  0  0  0  0  0  0  0  0  0  0
   13.0726   -4.6648   23.3394 O   0  0  0  0  0  0  0  0  0  0  0  0
    8.5955   -6.0705   17.3996 C   0  0  0  0  0  0  0  0  0  0  0  0
    4.6223   -8.3832   16.5030 C   0  0  0  0  0  0  0  0  0  0  0  0
   12.4690   -5.2624   19.9024 C   0  0  0  0  0  0  0  0  0  0  0  0
    3.2548   -9.9919   17.4189 C   0  0  0  0  0  0  0  0  0  0  0  0
   12.4767   -4.7393   22.1790 C   0  0  0  0  0  0  0  0  0  0  0  0
    7.8593   -5.3772   15.3569 N   0  0  0  0  0  0  0  0  0  0  0  0
    7.4412   -6.9038   16.9283 C   0  0  0  0  0  0  0  0  0  0  0  0
  1 21  4  0
  1 23  4  0
  2  5  1  0
  2 13  4  0
  2 16  4  0
  3  6  4  0
  3  7  4  0
  4 13  4  0
  4 19  4  0
  4 24  4  0
  6 23  4  0
  7 16  1  0
  7 21  4  0
  8 18  1  0
  9 20  4  0
  9 22  4  0
 10 17  1  0
 10 25  1  0
 11 16  4  0
 11 19  4  0
 12 15  4  0
 12 22  4  0
 14 24  4  0
 14 25  4  0
 15 17  4  0
 17 20  4  0
 18 23  1  0
 19 25  4  0
M  END
$$$$

 Created by Python create_sdf_string function

 25 28  0  0  0  0  0  0  0  0999 V2000
   13.1533   -5.2399   21.0682 C   0  0  0  0  0  0  0  0  0  0  0  0
   10.4729   -4.0295   17.6135 C   0  0  0  0  0  0  0  0  0  0  0  0
   10.4789   -4.3641   20.9564 C   0  0  0  0  0  0  0  0  0  0  0  0
    8.7421   -5.1412   16.3650 C   0  0  0  0  0  0  0  0  0  0  0  0
   11.4353   -2.9204   17.8044 C   0  0  0  0  0  0  0  0  0  0  0  0
   11.1529   -4.3028   22.1277 C   0  0  0  0  0  0  0  0  0  0  0  0
   11.1290   -4.8502   19.8052 C   0  0  0  0  0  0  0  0  0  0  0  0
   12.4329   -4.2159   24.4224 C   0  0  0  0  0  0  0  0  0  0  0  0
    3.4740   -9.0387   16.5022 C   0  0  0  0  0  0  0  0  0  0  0  0
    6.8384   -7.9290   17.5282 N   0  0  0  0  0  0  0  0  0  0  0  0
    9.4126   -5.9853   18.4899 C   0  0  0  0  0  0  0  0  0  0  0  0
    4.2064  -10.3242   18.3302 C   0  0  0  0  0  0  0  0  0  0  0  0
    9.6599   -4.1551   16.4796 N   0  0  0  0  0  0  0  0  0  0  0  0
    7.0644   -6.4612   15.7375 N   0  0  0  0  0  0  0  0  0  0  0  0
    5.3549   -9.6322   18.3190 C   0  0  0  0  0  0  0  0  0  0  0  0
   10.3704   -4.9638   18.6510 C   0  0  0  0  0  0  0  0  0  0  0  0
    5.5935   -8.6419   17.4234 C   0  0  0  0  0  0  0  0  0  0  0  0
   13.0726   -4.6648   23.3394 O   0  0  0  0  0  0  0  0  0  0  0  0
    8.5955   -6.0705   17.3996 C   0  0  0  0  0  0  0  0  0  0  0  0
    4.6223   -8.3832   16.5030 C   0  0  0  0  0  0  0  0  0  0  0  0
   12.4690   -5.2624   19.9024 C   0  0  0  0  0  0  0  0  0  0  0  0
    3.2548   -9.9919   17.4189 C   0  0  0  0  0  0  0  0  0  0  0  0
   12.4767   -4.7393   22.1790 C   0  0  0  0  0  0  0  0  0  0  0  0
    7.8593   -5.3772   15.3569 N   0  0  0  0  0  0  0  0  0  0  0  0
    7.4412   -6.9038   16.9283 C   0  0  0  0  0  0  0  0  0  0  0  0
  1 21  4  0
  1 23  4  0
  2  5  1  0
  2 13  4  0
  2 16  4  0
  3  6  4  0
  3  7  4  0
  4 13  4  0
  4 19  4  0
  4 24  4  0
  6 23  4  0
  7 16  1  0
  7 21  4  0
  8 18  1  0
  9 20  4  0
  9 22  4  0
 10 17  1  0
 10 25  1  0
 11 16  4  0
 11 19  4  0
 12 15  4  0
 12 22  4  0
 14 24  4  0
 14 25  4  0
 15 17  4  0
 17 20  4  0
 18 23  1  0
 19 25  4  0
M  END
$$$$

 Created by Python create_sdf_string function

 25 28  0  0  0  0  0  0  0  0999 V2000
   13.1533   -5.2399   21.0682 C   0  0  0  0  0  0  0  0  0  0  0  0
   10.4729   -4.0295   17.6135 C   0  0  0  0  0  0  0  0  0  0  0  0
   10.4789   -4.3641   20.9564 C   0  0  0  0  0  0  0  0  0  0  0  0
    8.7421   -5.1412   16.3650 C   0  0  0  0  0  0  0  0  0  0  0  0
   11.4353   -2.9204   17.8044 C   0  0  0  0  0  0  0  0  0  0  0  0
   11.1529   -4.3028   22.1277 C   0  0  0  0  0  0  0  0  0  0  0  0
   11.1290   -4.8502   19.8052 C   0  0  0  0  0  0  0  0  0  0  0  0
   12.4329   -4.2159   24.4224 C   0  0  0  0  0  0  0  0  0  0  0  0
    3.4740   -9.0387   16.5022 C   0  0  0  0  0  0  0  0  0  0  0  0
    6.8384   -7.9290   17.5282 N   0  0  0  0  0  0  0  0  0  0  0  0
    9.4126   -5.9853   18.4899 C   0  0  0  0  0  0  0  0  0  0  0  0
    4.2064  -10.3242   18.3302 C   0  0  0  0  0  0  0  0  0  0  0  0
    9.6599   -4.1551   16.4796 N   0  0  0  0  0  0  0  0  0  0  0  0
    7.0644   -6.4612   15.7375 N   0  0  0  0  0  0  0  0  0  0  0  0
    5.3549   -9.6322   18.3190 C   0  0  0  0  0  0  0  0  0  0  0  0
   10.3704   -4.9638   18.6510 C   0  0  0  0  0  0  0  0  0  0  0  0
    5.5935   -8.6419   17.4234 C   0  0  0  0  0  0  0  0  0  0  0  0
   13.0726   -4.6648   23.3394 O   0  0  0  0  0  0  0  0  0  0  0  0
    8.5955   -6.0705   17.3996 C   0  0  0  0  0  0  0  0  0  0  0  0
    4.6223   -8.3832   16.5030 C   0  0  0  0  0  0  0  0  0  0  0  0
   12.4690   -5.2624   19.9024 C   0  0  0  0  0  0  0  0  0  0  0  0
    3.2548   -9.9919   17.4189 C   0  0  0  0  0  0  0  0  0  0  0  0
   12.4767   -4.7393   22.1790 C   0  0  0  0  0  0  0  0  0  0  0  0
    7.8593   -5.3772   15.3569 N   0  0  0  0  0  0  0  0  0  0  0  0
    7.4412   -6.9038   16.9283 C   0  0  0  0  0  0  0  0  0  0  0  0
  1 21  4  0
  1 23  4  0
  2  5  1  0
  2 13  4  0
  2 16  4  0
  3  6  4  0
  3  7  4  0
  4 13  4  0
  4 19  4  0
  4 24  4  0
  6 23  4  0
  7 16  1  0
  7 21  4  0
  8 18  1  0
  9 20  4  0
  9 22  4  0
 10 17  1  0
 10 25  1  0
 11 16  4  0
 11 19  4  0
 12 15  4  0
 12 22  4  0
 14 24  4  0
 14 25  4  0
 15 17  4  0
 17 20  4  0
 18 23  1  0
 19 25  4  0
M  END
$$$$

 Created by Python create_sdf_string function

 25 28  0  0  0  0  0  0  0  0999 V2000
   13.1533   -5.2399   21.0682 C   0  0  0  0  0  0  0  0  0  0  0  0
   10.4729   -4.0295   17.6135 C   0  0  0  0  0  0  0  0  0  0  0  0
   10.4789   -4.3641   20.9564 C   0  0  0  0  0  0  0  0  0  0  0  0
    8.7421   -5.1412   16.3650 C   0  0  0  0  0  0  0  0  0  0  0  0
   11.4353   -2.9204   17.8044 C   0  0  0  0  0  0  0  0  0  0  0  0
   11.1529   -4.3028   22.1277 C   0  0  0  0  0  0  0  0  0  0  0  0
   11.1290   -4.8502   19.8052 C   0  0  0  0  0  0  0  0  0  0  0  0
   12.4329   -4.2159   24.4224 C   0  0  0  0  0  0  0  0  0  0  0  0
    3.4740   -9.0387   16.5022 C   0  0  0  0  0  0  0  0  0  0  0  0
    6.8384   -7.9290   17.5282 N   0  0  0  0  0  0  0  0  0  0  0  0
    9.4126   -5.9853   18.4899 C   0  0  0  0  0  0  0  0  0  0  0  0
    4.2064  -10.3242   18.3302 C   0  0  0  0  0  0  0  0  0  0  0  0
    9.6599   -4.1551   16.4796 N   0  0  0  0  0  0  0  0  0  0  0  0
    7.0644   -6.4612   15.7375 N   0  0  0  0  0  0  0  0  0  0  0  0
    5.3549   -9.6322   18.3190 C   0  0  0  0  0  0  0  0  0  0  0  0
   10.3704   -4.9638   18.6510 C   0  0  0  0  0  0  0  0  0  0  0  0
    5.5935   -8.6419   17.4234 C   0  0  0  0  0  0  0  0  0  0  0  0
   13.0726   -4.6648   23.3394 O   0  0  0  0  0  0  0  0  0  0  0  0
    8.5955   -6.0705   17.3996 C   0  0  0  0  0  0  0  0  0  0  0  0
    4.6223   -8.3832   16.5030 C   0  0  0  0  0  0  0  0  0  0  0  0
   12.4690   -5.2624   19.9024 C   0  0  0  0  0  0  0  0  0  0  0  0
    3.2548   -9.9919   17.4189 C   0  0  0  0  0  0  0  0  0  0  0  0
   12.4767   -4.7393   22.1790 C   0  0  0  0  0  0  0  0  0  0  0  0
    7.8593   -5.3772   15.3569 N   0  0  0  0  0  0  0  0  0  0  0  0
    7.4412   -6.9038   16.9283 C   0  0  0  0  0  0  0  0  0  0  0  0
  1 21  4  0
  1 23  4  0
  2  5  1  0
  2 13  4  0
  2 16  4  0
  3  6  4  0
  3  7  4  0
  4 13  4  0
  4 19  4  0
  4 24  4  0
  6 23  4  0
  7 16  1  0
  7 21  4  0
  8 18  1  0
  9 20  4  0
  9 22  4  0
 10 17  1  0
 10 25  1  0
 11 16  4  0
 11 19  4  0
 12 15  4  0
 12 22  4  0
 14 24  4  0
 14 25  4  0
 15 17  4  0
 17 20  4  0
 18 23  1  0
 19 25  4  0
M  END
$$$$

 Created by Python create_sdf_string function

 25 28  0  0  0  0  0  0  0  0999 V2000
   13.1533   -5.2399   21.0682 C   0  0  0  0  0  0  0  0  0  0  0  0
   10.4729   -4.0295   17.6135 C   0  0  0  0  0  0  0  0  0  0  0  0
   10.4789   -4.3641   20.9564 C   0  0  0  0  0  0  0  0  0  0  0  0
    8.7421   -5.1412   16.3650 C   0  0  0  0  0  0  0  0  0  0  0  0
   11.4353   -2.9204   17.8044 C   0  0  0  0  0  0  0  0  0  0  0  0
   11.1529   -4.3028   22.1277 C   0  0  0  0  0  0  0  0  0  0  0  0
   11.1290   -4.8502   19.8052 C   0  0  0  0  0  0  0  0  0  0  0  0
   12.4329   -4.2159   24.4224 C   0  0  0  0  0  0  0  0  0  0  0  0
    3.4740   -9.0387   16.5022 C   0  0  0  0  0  0  0  0  0  0  0  0
    6.8384   -7.9290   17.5282 N   0  0  0  0  0  0  0  0  0  0  0  0
    9.4126   -5.9853   18.4899 C   0  0  0  0  0  0  0  0  0  0  0  0
    4.2064  -10.3242   18.3302 C   0  0  0  0  0  0  0  0  0  0  0  0
    9.6599   -4.1551   16.4796 N   0  0  0  0  0  0  0  0  0  0  0  0
    7.0644   -6.4612   15.7375 N   0  0  0  0  0  0  0  0  0  0  0  0
    5.3549   -9.6322   18.3190 C   0  0  0  0  0  0  0  0  0  0  0  0
   10.3704   -4.9638   18.6510 C   0  0  0  0  0  0  0  0  0  0  0  0
    5.5935   -8.6419   17.4234 C   0  0  0  0  0  0  0  0  0  0  0  0
   13.0726   -4.6648   23.3394 O   0  0  0  0  0  0  0  0  0  0  0  0
    8.5955   -6.0705   17.3996 C   0  0  0  0  0  0  0  0  0  0  0  0
    4.6223   -8.3832   16.5030 C   0  0  0  0  0  0  0  0  0  0  0  0
   12.4690   -5.2624   19.9024 C   0  0  0  0  0  0  0  0  0  0  0  0
    3.2548   -9.9919   17.4189 C   0  0  0  0  0  0  0  0  0  0  0  0
   12.4767   -4.7393   22.1790 C   0  0  0  0  0  0  0  0  0  0  0  0
    7.8593   -5.3772   15.3569 N   0  0  0  0  0  0  0  0  0  0  0  0
    7.4412   -6.9038   16.9283 C   0  0  0  0  0  0  0  0  0  0  0  0
  1 21  4  0
  1 23  4  0
  2  5  1  0
  2 13  4  0
  2 16  4  0
  3  6  4  0
  3  7  4  0
  4 13  4  0
  4 19  4  0
  4 24  4  0
  6 23  4  0
  7 16  1  0
  7 21  4  0
  8 18  1  0
  9 20  4  0
  9 22  4  0
 10 17  1  0
 10 25  1  0
 11 16  4  0
 11 19  4  0
 12 15  4  0
 12 22  4  0
 14 24  4  0
 14 25  4  0
 15 17  4  0
 17 20  4  0
 18 23  1  0
 19 25  4  0
M  END
$$$$

 Created by Python create_sdf_string function

 25 28  0  0  0  0  0  0  0  0999 V2000
   13.1533   -5.2399   21.0682 C   0  0  0  0  0  0  0  0  0  0  0  0
   10.4729   -4.0295   17.6135 C   0  0  0  0  0  0  0  0  0  0  0  0
   10.4789   -4.3641   20.9564 C   0  0  0  0  0  0  0  0  0  0  0  0
    8.7421   -5.1412   16.3650 C   0  0  0  0  0  0  0  0  0  0  0  0
   11.4353   -2.9204   17.8044 C   0  0  0  0  0  0  0  0  0  0  0  0
   11.1529   -4.3028   22.1277 C   0  0  0  0  0  0  0  0  0  0  0  0
   11.1290   -4.8502   19.8052 C   0  0  0  0  0  0  0  0  0  0  0  0
   12.4329   -4.2159   24.4224 C   0  0  0  0  0  0  0  0  0  0  0  0
    3.4740   -9.0387   16.5022 C   0  0  0  0  0  0  0  0  0  0  0  0
    6.8384   -7.9290   17.5282 N   0  0  0  0  0  0  0  0  0  0  0  0
    9.4126   -5.9853   18.4899 C   0  0  0  0  0  0  0  0  0  0  0  0
    4.2064  -10.3242   18.3302 C   0  0  0  0  0  0  0  0  0  0  0  0
    9.6599   -4.1551   16.4796 N   0  0  0  0  0  0  0  0  0  0  0  0
    7.0644   -6.4612   15.7375 N   0  0  0  0  0  0  0  0  0  0  0  0
    5.3549   -9.6322   18.3190 C   0  0  0  0  0  0  0  0  0  0  0  0
   10.3704   -4.9638   18.6510 C   0  0  0  0  0  0  0  0  0  0  0  0
    5.5935   -8.6419   17.4234 C   0  0  0  0  0  0  0  0  0  0  0  0
   13.0726   -4.6648   23.3394 O   0  0  0  0  0  0  0  0  0  0  0  0
    8.5955   -6.0705   17.3996 C   0  0  0  0  0  0  0  0  0  0  0  0
    4.6223   -8.3832   16.5030 C   0  0  0  0  0  0  0  0  0  0  0  0
   12.4690   -5.2624   19.9024 C   0  0  0  0  0  0  0  0  0  0  0  0
    3.2548   -9.9919   17.4189 C   0  0  0  0  0  0  0  0  0  0  0  0
   12.4767   -4.7393   22.1790 C   0  0  0  0  0  0  0  0  0  0  0  0
    7.8593   -5.3772   15.3569 N   0  0  0  0  0  0  0  0  0  0  0  0
    7.4412   -6.9038   16.9283 C   0  0  0  0  0  0  0  0  0  0  0  0
  1 21  4  0
  1 23  4  0
  2  5  1  0
  2 13  4  0
  2 16  4  0
  3  6  4  0
  3  7  4  0
  4 13  4  0
  4 19  4  0
  4 24  4  0
  6 23  4  0
  7 16  1  0
  7 21  4  0
  8 18  1  0
  9 20  4  0
  9 22  4  0
 10 17  1  0
 10 25  1  0
 11 16  4  0
 11 19  4  0
 12 15  4  0
 12 22  4  0
 14 24  4  0
 14 25  4  0
 15 17  4  0
 17 20  4  0
 18 23  1  0
 19 25  4  0
M  END
$$$$

 Created by Python create_sdf_string function

 25 28  0  0  0  0  0  0  0  0999 V2000
   13.1533   -5.2399   21.0682 C   0  0  0  0  0  0  0  0  0  0  0  0
   10.4729   -4.0295   17.6135 C   0  0  0  0  0  0  0  0  0  0  0  0
   10.4789   -4.3641   20.9564 C   0  0  0  0  0  0  0  0  0  0  0  0
    8.7421   -5.1412   16.3650 C   0  0  0  0  0  0  0  0  0  0  0  0
   11.4353   -2.9204   17.8044 C   0  0  0  0  0  0  0  0  0  0  0  0
   11.1529   -4.3028   22.1277 C   0  0  0  0  0  0  0  0  0  0  0  0
   11.1290   -4.8502   19.8052 C   0  0  0  0  0  0  0  0  0  0  0  0
   12.4329   -4.2159   24.4224 C   0  0  0  0  0  0  0  0  0  0  0  0
    3.4740   -9.0387   16.5022 C   0  0  0  0  0  0  0  0  0  0  0  0
    6.8384   -7.9290   17.5282 N   0  0  0  0  0  0  0  0  0  0  0  0
    9.4126   -5.9853   18.4899 C   0  0  0  0  0  0  0  0  0  0  0  0
    4.2064  -10.3242   18.3302 C   0  0  0  0  0  0  0  0  0  0  0  0
    9.6599   -4.1551   16.4796 N   0  0  0  0  0  0  0  0  0  0  0  0
    7.0644   -6.4612   15.7375 N   0  0  0  0  0  0  0  0  0  0  0  0
    5.3549   -9.6322   18.3190 C   0  0  0  0  0  0  0  0  0  0  0  0
   10.3704   -4.9638   18.6510 C   0  0  0  0  0  0  0  0  0  0  0  0
    5.5935   -8.6419   17.4234 C   0  0  0  0  0  0  0  0  0  0  0  0
   13.0726   -4.6648   23.3394 O   0  0  0  0  0  0  0  0  0  0  0  0
    8.5955   -6.0705   17.3996 C   0  0  0  0  0  0  0  0  0  0  0  0
    4.6223   -8.3832   16.5030 C   0  0  0  0  0  0  0  0  0  0  0  0
   12.4690   -5.2624   19.9024 C   0  0  0  0  0  0  0  0  0  0  0  0
    3.2548   -9.9919   17.4189 C   0  0  0  0  0  0  0  0  0  0  0  0
   12.4767   -4.7393   22.1790 C   0  0  0  0  0  0  0  0  0  0  0  0
    7.8593   -5.3772   15.3569 N   0  0  0  0  0  0  0  0  0  0  0  0
    7.4412   -6.9038   16.9283 C   0  0  0  0  0  0  0  0  0  0  0  0
  1 21  4  0
  1 23  4  0
  2  5  1  0
  2 13  4  0
  2 16  4  0
  3  6  4  0
  3  7  4  0
  4 13  4  0
  4 19  4  0
  4 24  4  0
  6 23  4  0
  7 16  1  0
  7 21  4  0
  8 18  1  0
  9 20  4  0
  9 22  4  0
 10 17  1  0
 10 25  1  0
 11 16  4  0
 11 19  4  0
 12 15  4  0
 12 22  4  0
 14 24  4  0
 14 25  4  0
 15 17  4  0
 17 20  4  0
 18 23  1  0
 19 25  4  0
M  END
$$$$

 Created by Python create_sdf_string function

 25 28  0  0  0  0  0  0  0  0999 V2000
   13.1533   -5.2399   21.0682 C   0  0  0  0  0  0  0  0  0  0  0  0
   10.4729   -4.0295   17.6135 C   0  0  0  0  0  0  0  0  0  0  0  0
   10.4789   -4.3641   20.9564 C   0  0  0  0  0  0  0  0  0  0  0  0
    8.7421   -5.1412   16.3650 C   0  0  0  0  0  0  0  0  0  0  0  0
   11.4353   -2.9204   17.8044 C   0  0  0  0  0  0  0  0  0  0  0  0
   11.1529   -4.3028   22.1277 C   0  0  0  0  0  0  0  0  0  0  0  0
   11.1290   -4.8502   19.8052 C   0  0  0  0  0  0  0  0  0  0  0  0
   12.4329   -4.2159   24.4224 C   0  0  0  0  0  0  0  0  0  0  0  0
    3.4740   -9.0387   16.5022 C   0  0  0  0  0  0  0  0  0  0  0  0
    6.8384   -7.9290   17.5282 N   0  0  0  0  0  0  0  0  0  0  0  0
    9.4126   -5.9853   18.4899 C   0  0  0  0  0  0  0  0  0  0  0  0
    4.2064  -10.3242   18.3302 C   0  0  0  0  0  0  0  0  0  0  0  0
    9.6599   -4.1551   16.4796 N   0  0  0  0  0  0  0  0  0  0  0  0
    7.0644   -6.4612   15.7375 N   0  0  0  0  0  0  0  0  0  0  0  0
    5.3549   -9.6322   18.3190 C   0  0  0  0  0  0  0  0  0  0  0  0
   10.3704   -4.9638   18.6510 C   0  0  0  0  0  0  0  0  0  0  0  0
    5.5935   -8.6419   17.4234 C   0  0  0  0  0  0  0  0  0  0  0  0
   13.0726   -4.6648   23.3394 O   0  0  0  0  0  0  0  0  0  0  0  0
    8.5955   -6.0705   17.3996 C   0  0  0  0  0  0  0  0  0  0  0  0
    4.6223   -8.3832   16.5030 C   0  0  0  0  0  0  0  0  0  0  0  0
   12.4690   -5.2624   19.9024 C   0  0  0  0  0  0  0  0  0  0  0  0
    3.2548   -9.9919   17.4189 C   0  0  0  0  0  0  0  0  0  0  0  0
   12.4767   -4.7393   22.1790 C   0  0  0  0  0  0  0  0  0  0  0  0
    7.8593   -5.3772   15.3569 N   0  0  0  0  0  0  0  0  0  0  0  0
    7.4412   -6.9038   16.9283 C   0  0  0  0  0  0  0  0  0  0  0  0
  1 21  4  0
  1 23  4  0
  2  5  1  0
  2 13  4  0
  2 16  4  0
  3  6  4  0
  3  7  4  0
  4 13  4  0
  4 19  4  0
  4 24  4  0
  6 23  4  0
  7 16  1  0
  7 21  4  0
  8 18  1  0
  9 20  4  0
  9 22  4  0
 10 17  1  0
 10 25  1  0
 11 16  4  0
 11 19  4  0
 12 15  4  0
 12 22  4  0
 14 24  4  0
 14 25  4  0
 15 17  4  0
 17 20  4  0
 18 23  1  0
 19 25  4  0
M  END
$$$$

 Created by Python create_sdf_string function

 25 28  0  0  0  0  0  0  0  0999 V2000
   13.1533   -5.2399   21.0682 C   0  0  0  0  0  0  0  0  0  0  0  0
   10.4729   -4.0295   17.6135 C   0  0  0  0  0  0  0  0  0  0  0  0
   10.4789   -4.3641   20.9564 C   0  0  0  0  0  0  0  0  0  0  0  0
    8.7421   -5.1412   16.3650 C   0  0  0  0  0  0  0  0  0  0  0  0
   11.4353   -2.9204   17.8044 C   0  0  0  0  0  0  0  0  0  0  0  0
   11.1529   -4.3028   22.1277 C   0  0  0  0  0  0  0  0  0  0  0  0
   11.1290   -4.8502   19.8052 C   0  0  0  0  0  0  0  0  0  0  0  0
   12.4329   -4.2159   24.4224 C   0  0  0  0  0  0  0  0  0  0  0  0
    3.4740   -9.0387   16.5022 C   0  0  0  0  0  0  0  0  0  0  0  0
    6.8384   -7.9290   17.5282 N   0  0  0  0  0  0  0  0  0  0  0  0
    9.4126   -5.9853   18.4899 C   0  0  0  0  0  0  0  0  0  0  0  0
    4.2064  -10.3242   18.3302 C   0  0  0  0  0  0  0  0  0  0  0  0
    9.6599   -4.1551   16.4796 N   0  0  0  0  0  0  0  0  0  0  0  0
    7.0644   -6.4612   15.7375 N   0  0  0  0  0  0  0  0  0  0  0  0
    5.3549   -9.6322   18.3190 C   0  0  0  0  0  0  0  0  0  0  0  0
   10.3704   -4.9638   18.6510 C   0  0  0  0  0  0  0  0  0  0  0  0
    5.5935   -8.6419   17.4234 C   0  0  0  0  0  0  0  0  0  0  0  0
   13.0726   -4.6648   23.3394 O   0  0  0  0  0  0  0  0  0  0  0  0
    8.5955   -6.0705   17.3996 C   0  0  0  0  0  0  0  0  0  0  0  0
    4.6223   -8.3832   16.5030 C   0  0  0  0  0  0  0  0  0  0  0  0
   12.4690   -5.2624   19.9024 C   0  0  0  0  0  0  0  0  0  0  0  0
    3.2548   -9.9919   17.4189 C   0  0  0  0  0  0  0  0  0  0  0  0
   12.4767   -4.7393   22.1790 C   0  0  0  0  0  0  0  0  0  0  0  0
    7.8593   -5.3772   15.3569 N   0  0  0  0  0  0  0  0  0  0  0  0
    7.4412   -6.9038   16.9283 C   0  0  0  0  0  0  0  0  0  0  0  0
  1 21  4  0
  1 23  4  0
  2  5  1  0
  2 13  4  0
  2 16  4  0
  3  6  4  0
  3  7  4  0
  4 13  4  0
  4 19  4  0
  4 24  4  0
  6 23  4  0
  7 16  1  0
  7 21  4  0
  8 18  1  0
  9 20  4  0
  9 22  4  0
 10 17  1  0
 10 25  1  0
 11 16  4  0
 11 19  4  0
 12 15  4  0
 12 22  4  0
 14 24  4  0
 14 25  4  0
 15 17  4  0
 17 20  4  0
 18 23  1  0
 19 25  4  0
M  END
$$$$

 Created by Python create_sdf_string function

 25 28  0  0  0  0  0  0  0  0999 V2000
   13.1533   -5.2399   21.0682 C   0  0  0  0  0  0  0  0  0  0  0  0
   10.4729   -4.0295   17.6135 C   0  0  0  0  0  0  0  0  0  0  0  0
   10.4789   -4.3641   20.9564 C   0  0  0  0  0  0  0  0  0  0  0  0
    8.7421   -5.1412   16.3650 C   0  0  0  0  0  0  0  0  0  0  0  0
   11.4353   -2.9204   17.8044 C   0  0  0  0  0  0  0  0  0  0  0  0
   11.1529   -4.3028   22.1277 C   0  0  0  0  0  0  0  0  0  0  0  0
   11.1290   -4.8502   19.8052 C   0  0  0  0  0  0  0  0  0  0  0  0
   12.4329   -4.2159   24.4224 C   0  0  0  0  0  0  0  0  0  0  0  0
    3.4740   -9.0387   16.5022 C   0  0  0  0  0  0  0  0  0  0  0  0
    6.8384   -7.9290   17.5282 N   0  0  0  0  0  0  0  0  0  0  0  0
    9.4126   -5.9853   18.4899 C   0  0  0  0  0  0  0  0  0  0  0  0
    4.2064  -10.3242   18.3302 C   0  0  0  0  0  0  0  0  0  0  0  0
    9.6599   -4.1551   16.4796 N   0  0  0  0  0  0  0  0  0  0  0  0
    7.0644   -6.4612   15.7375 N   0  0  0  0  0  0  0  0  0  0  0  0
    5.3549   -9.6322   18.3190 C   0  0  0  0  0  0  0  0  0  0  0  0
   10.3704   -4.9638   18.6510 C   0  0  0  0  0  0  0  0  0  0  0  0
    5.5935   -8.6419   17.4234 C   0  0  0  0  0  0  0  0  0  0  0  0
   13.0726   -4.6648   23.3394 O   0  0  0  0  0  0  0  0  0  0  0  0
    8.5955   -6.0705   17.3996 C   0  0  0  0  0  0  0  0  0  0  0  0
    4.6223   -8.3832   16.5030 C   0  0  0  0  0  0  0  0  0  0  0  0
   12.4690   -5.2624   19.9024 C   0  0  0  0  0  0  0  0  0  0  0  0
    3.2548   -9.9919   17.4189 C   0  0  0  0  0  0  0  0  0  0  0  0
   12.4767   -4.7393   22.1790 C   0  0  0  0  0  0  0  0  0  0  0  0
    7.8593   -5.3772   15.3569 N   0  0  0  0  0  0  0  0  0  0  0  0
    7.4412   -6.9038   16.9283 C   0  0  0  0  0  0  0  0  0  0  0  0
  1 21  4  0
  1 23  4  0
  2  5  1  0
  2 13  4  0
  2 16  4  0
  3  6  4  0
  3  7  4  0
  4 13  4  0
  4 19  4  0
  4 24  4  0
  6 23  4  0
  7 16  1  0
  7 21  4  0
  8 18  1  0
  9 20  4  0
  9 22  4  0
 10 17  1  0
 10 25  1  0
 11 16  4  0
 11 19  4  0
 12 15  4  0
 12 22  4  0
 14 24  4  0
 14 25  4  0
 15 17  4  0
 17 20  4  0
 18 23  1  0
 19 25  4  0
M  END
$$$$

 Created by Python create_sdf_string function

 25 28  0  0  0  0  0  0  0  0999 V2000
   13.1533   -5.2399   21.0682 C   0  0  0  0  0  0  0  0  0  0  0  0
   10.4729   -4.0295   17.6135 C   0  0  0  0  0  0  0  0  0  0  0  0
   10.4789   -4.3641   20.9564 C   0  0  0  0  0  0  0  0  0  0  0  0
    8.7421   -5.1412   16.3650 C   0  0  0  0  0  0  0  0  0  0  0  0
   11.4353   -2.9204   17.8044 C   0  0  0  0  0  0  0  0  0  0  0  0
   11.1529   -4.3028   22.1277 C   0  0  0  0  0  0  0  0  0  0  0  0
   11.1290   -4.8502   19.8052 C   0  0  0  0  0  0  0  0  0  0  0  0
   12.4329   -4.2159   24.4224 C   0  0  0  0  0  0  0  0  0  0  0  0
    3.4740   -9.0387   16.5022 C   0  0  0  0  0  0  0  0  0  0  0  0
    6.8384   -7.9290   17.5282 N   0  0  0  0  0  0  0  0  0  0  0  0
    9.4126   -5.9853   18.4899 C   0  0  0  0  0  0  0  0  0  0  0  0
    4.2064  -10.3242   18.3302 C   0  0  0  0  0  0  0  0  0  0  0  0
    9.6599   -4.1551   16.4796 N   0  0  0  0  0  0  0  0  0  0  0  0
    7.0644   -6.4612   15.7375 N   0  0  0  0  0  0  0  0  0  0  0  0
    5.3549   -9.6322   18.3190 C   0  0  0  0  0  0  0  0  0  0  0  0
   10.3704   -4.9638   18.6510 C   0  0  0  0  0  0  0  0  0  0  0  0
    5.5935   -8.6419   17.4234 C   0  0  0  0  0  0  0  0  0  0  0  0
   13.0726   -4.6648   23.3394 O   0  0  0  0  0  0  0  0  0  0  0  0
    8.5955   -6.0705   17.3996 C   0  0  0  0  0  0  0  0  0  0  0  0
    4.6223   -8.3832   16.5030 C   0  0  0  0  0  0  0  0  0  0  0  0
   12.4690   -5.2624   19.9024 C   0  0  0  0  0  0  0  0  0  0  0  0
    3.2548   -9.9919   17.4189 C   0  0  0  0  0  0  0  0  0  0  0  0
   12.4767   -4.7393   22.1790 C   0  0  0  0  0  0  0  0  0  0  0  0
    7.8593   -5.3772   15.3569 N   0  0  0  0  0  0  0  0  0  0  0  0
    7.4412   -6.9038   16.9283 C   0  0  0  0  0  0  0  0  0  0  0  0
  1 21  4  0
  1 23  4  0
  2  5  1  0
  2 13  4  0
  2 16  4  0
  3  6  4  0
  3  7  4  0
  4 13  4  0
  4 19  4  0
  4 24  4  0
  6 23  4  0
  7 16  1  0
  7 21  4  0
  8 18  1  0
  9 20  4  0
  9 22  4  0
 10 17  1  0
 10 25  1  0
 11 16  4  0
 11 19  4  0
 12 15  4  0
 12 22  4  0
 14 24  4  0
 14 25  4  0
 15 17  4  0
 17 20  4  0
 18 23  1  0
 19 25  4  0
M  END
$$$$

 Created by Python create_sdf_string function

 25 28  0  0  0  0  0  0  0  0999 V2000
   13.1533   -5.2399   21.0682 C   0  0  0  0  0  0  0  0  0  0  0  0
   10.4729   -4.0295   17.6135 C   0  0  0  0  0  0  0  0  0  0  0  0
   10.4789   -4.3641   20.9564 C   0  0  0  0  0  0  0  0  0  0  0  0
    8.7421   -5.1412   16.3650 C   0  0  0  0  0  0  0  0  0  0  0  0
   11.4353   -2.9204   17.8044 C   0  0  0  0  0  0  0  0  0  0  0  0
   11.1529   -4.3028   22.1277 C   0  0  0  0  0  0  0  0  0  0  0  0
   11.1290   -4.8502   19.8052 C   0  0  0  0  0  0  0  0  0  0  0  0
   12.4329   -4.2159   24.4224 C   0  0  0  0  0  0  0  0  0  0  0  0
    3.4740   -9.0387   16.5022 C   0  0  0  0  0  0  0  0  0  0  0  0
    6.8384   -7.9290   17.5282 N   0  0  0  0  0  0  0  0  0  0  0  0
    9.4126   -5.9853   18.4899 C   0  0  0  0  0  0  0  0  0  0  0  0
    4.2064  -10.3242   18.3302 C   0  0  0  0  0  0  0  0  0  0  0  0
    9.6599   -4.1551   16.4796 N   0  0  0  0  0  0  0  0  0  0  0  0
    7.0644   -6.4612   15.7375 N   0  0  0  0  0  0  0  0  0  0  0  0
    5.3549   -9.6322   18.3190 C   0  0  0  0  0  0  0  0  0  0  0  0
   10.3704   -4.9638   18.6510 C   0  0  0  0  0  0  0  0  0  0  0  0
    5.5935   -8.6419   17.4234 C   0  0  0  0  0  0  0  0  0  0  0  0
   13.0726   -4.6648   23.3394 O   0  0  0  0  0  0  0  0  0  0  0  0
    8.5955   -6.0705   17.3996 C   0  0  0  0  0  0  0  0  0  0  0  0
    4.6223   -8.3832   16.5030 C   0  0  0  0  0  0  0  0  0  0  0  0
   12.4690   -5.2624   19.9024 C   0  0  0  0  0  0  0  0  0  0  0  0
    3.2548   -9.9919   17.4189 C   0  0  0  0  0  0  0  0  0  0  0  0
   12.4767   -4.7393   22.1790 C   0  0  0  0  0  0  0  0  0  0  0  0
    7.8593   -5.3772   15.3569 N   0  0  0  0  0  0  0  0  0  0  0  0
    7.4412   -6.9038   16.9283 C   0  0  0  0  0  0  0  0  0  0  0  0
  1 21  4  0
  1 23  4  0
  2  5  1  0
  2 13  4  0
  2 16  4  0
  3  6  4  0
  3  7  4  0
  4 13  4  0
  4 19  4  0
  4 24  4  0
  6 23  4  0
  7 16  1  0
  7 21  4  0
  8 18  1  0
  9 20  4  0
  9 22  4  0
 10 17  1  0
 10 25  1  0
 11 16  4  0
 11 19  4  0
 12 15  4  0
 12 22  4  0
 14 24  4  0
 14 25  4  0
 15 17  4  0
 17 20  4  0
 18 23  1  0
 19 25  4  0
M  END
$$$$

 Created by Python create_sdf_string function

 25 28  0  0  0  0  0  0  0  0999 V2000
   13.1533   -5.2399   21.0682 C   0  0  0  0  0  0  0  0  0  0  0  0
   10.4729   -4.0295   17.6135 C   0  0  0  0  0  0  0  0  0  0  0  0
   10.4789   -4.3641   20.9564 C   0  0  0  0  0  0  0  0  0  0  0  0
    8.7421   -5.1412   16.3650 C   0  0  0  0  0  0  0  0  0  0  0  0
   11.4353   -2.9204   17.8044 C   0  0  0  0  0  0  0  0  0  0  0  0
   11.1529   -4.3028   22.1277 C   0  0  0  0  0  0  0  0  0  0  0  0
   11.1290   -4.8502   19.8052 C   0  0  0  0  0  0  0  0  0  0  0  0
   12.4329   -4.2159   24.4224 C   0  0  0  0  0  0  0  0  0  0  0  0
    3.4740   -9.0387   16.5022 C   0  0  0  0  0  0  0  0  0  0  0  0
    6.8384   -7.9290   17.5282 N   0  0  0  0  0  0  0  0  0  0  0  0
    9.4126   -5.9853   18.4899 C   0  0  0  0  0  0  0  0  0  0  0  0
    4.2064  -10.3242   18.3302 C   0  0  0  0  0  0  0  0  0  0  0  0
    9.6599   -4.1551   16.4796 N   0  0  0  0  0  0  0  0  0  0  0  0
    7.0644   -6.4612   15.7375 N   0  0  0  0  0  0  0  0  0  0  0  0
    5.3549   -9.6322   18.3190 C   0  0  0  0  0  0  0  0  0  0  0  0
   10.3704   -4.9638   18.6510 C   0  0  0  0  0  0  0  0  0  0  0  0
    5.5935   -8.6419   17.4234 C   0  0  0  0  0  0  0  0  0  0  0  0
   13.0726   -4.6648   23.3394 O   0  0  0  0  0  0  0  0  0  0  0  0
    8.5955   -6.0705   17.3996 C   0  0  0  0  0  0  0  0  0  0  0  0
    4.6223   -8.3832   16.5030 C   0  0  0  0  0  0  0  0  0  0  0  0
   12.4690   -5.2624   19.9024 C   0  0  0  0  0  0  0  0  0  0  0  0
    3.2548   -9.9919   17.4189 C   0  0  0  0  0  0  0  0  0  0  0  0
   12.4767   -4.7393   22.1790 C   0  0  0  0  0  0  0  0  0  0  0  0
    7.8593   -5.3772   15.3569 N   0  0  0  0  0  0  0  0  0  0  0  0
    7.4412   -6.9038   16.9283 C   0  0  0  0  0  0  0  0  0  0  0  0
  1 21  4  0
  1 23  4  0
  2  5  1  0
  2 13  4  0
  2 16  4  0
  3  6  4  0
  3  7  4  0
  4 13  4  0
  4 19  4  0
  4 24  4  0
  6 23  4  0
  7 16  1  0
  7 21  4  0
  8 18  1  0
  9 20  4  0
  9 22  4  0
 10 17  1  0
 10 25  1  0
 11 16  4  0
 11 19  4  0
 12 15  4  0
 12 22  4  0
 14 24  4  0
 14 25  4  0
 15 17  4  0
 17 20  4  0
 18 23  1  0
 19 25  4  0
M  END
$$$$

 Created by Python create_sdf_string function

 25 28  0  0  0  0  0  0  0  0999 V2000
   13.1533   -5.2399   21.0682 C   0  0  0  0  0  0  0  0  0  0  0  0
   10.4729   -4.0295   17.6135 C   0  0  0  0  0  0  0  0  0  0  0  0
   10.4789   -4.3641   20.9564 C   0  0  0  0  0  0  0  0  0  0  0  0
    8.7421   -5.1412   16.3650 C   0  0  0  0  0  0  0  0  0  0  0  0
   11.4353   -2.9204   17.8044 C   0  0  0  0  0  0  0  0  0  0  0  0
   11.1529   -4.3028   22.1277 C   0  0  0  0  0  0  0  0  0  0  0  0
   11.1290   -4.8502   19.8052 C   0  0  0  0  0  0  0  0  0  0  0  0
   12.4329   -4.2159   24.4224 C   0  0  0  0  0  0  0  0  0  0  0  0
    3.4740   -9.0387   16.5022 C   0  0  0  0  0  0  0  0  0  0  0  0
    6.8384   -7.9290   17.5282 N   0  0  0  0  0  0  0  0  0  0  0  0
    9.4126   -5.9853   18.4899 C   0  0  0  0  0  0  0  0  0  0  0  0
    4.2064  -10.3242   18.3302 C   0  0  0  0  0  0  0  0  0  0  0  0
    9.6599   -4.1551   16.4796 N   0  0  0  0  0  0  0  0  0  0  0  0
    7.0644   -6.4612   15.7375 N   0  0  0  0  0  0  0  0  0  0  0  0
    5.3549   -9.6322   18.3190 C   0  0  0  0  0  0  0  0  0  0  0  0
   10.3704   -4.9638   18.6510 C   0  0  0  0  0  0  0  0  0  0  0  0
    5.5935   -8.6419   17.4234 C   0  0  0  0  0  0  0  0  0  0  0  0
   13.0726   -4.6648   23.3394 O   0  0  0  0  0  0  0  0  0  0  0  0
    8.5955   -6.0705   17.3996 C   0  0  0  0  0  0  0  0  0  0  0  0
    4.6223   -8.3832   16.5030 C   0  0  0  0  0  0  0  0  0  0  0  0
   12.4690   -5.2624   19.9024 C   0  0  0  0  0  0  0  0  0  0  0  0
    3.2548   -9.9919   17.4189 C   0  0  0  0  0  0  0  0  0  0  0  0
   12.4767   -4.7393   22.1790 C   0  0  0  0  0  0  0  0  0  0  0  0
    7.8593   -5.3772   15.3569 N   0  0  0  0  0  0  0  0  0  0  0  0
    7.4412   -6.9038   16.9283 C   0  0  0  0  0  0  0  0  0  0  0  0
  1 21  4  0
  1 23  4  0
  2  5  1  0
  2 13  4  0
  2 16  4  0
  3  6  4  0
  3  7  4  0
  4 13  4  0
  4 19  4  0
  4 24  4  0
  6 23  4  0
  7 16  1  0
  7 21  4  0
  8 18  1  0
  9 20  4  0
  9 22  4  0
 10 17  1  0
 10 25  1  0
 11 16  4  0
 11 19  4  0
 12 15  4  0
 12 22  4  0
 14 24  4  0
 14 25  4  0
 15 17  4  0
 17 20  4  0
 18 23  1  0
 19 25  4  0
M  END
$$$$

 Created by Python create_sdf_string function

 25 28  0  0  0  0  0  0  0  0999 V2000
   13.1533   -5.2399   21.0682 C   0  0  0  0  0  0  0  0  0  0  0  0
   10.4729   -4.0295   17.6135 C   0  0  0  0  0  0  0  0  0  0  0  0
   10.4789   -4.3641   20.9564 C   0  0  0  0  0  0  0  0  0  0  0  0
    8.7421   -5.1412   16.3650 C   0  0  0  0  0  0  0  0  0  0  0  0
   11.4353   -2.9204   17.8044 C   0  0  0  0  0  0  0  0  0  0  0  0
   11.1529   -4.3028   22.1277 C   0  0  0  0  0  0  0  0  0  0  0  0
   11.1290   -4.8502   19.8052 C   0  0  0  0  0  0  0  0  0  0  0  0
   12.4329   -4.2159   24.4224 C   0  0  0  0  0  0  0  0  0  0  0  0
    3.4740   -9.0387   16.5022 C   0  0  0  0  0  0  0  0  0  0  0  0
    6.8384   -7.9290   17.5282 N   0  0  0  0  0  0  0  0  0  0  0  0
    9.4126   -5.9853   18.4899 C   0  0  0  0  0  0  0  0  0  0  0  0
    4.2064  -10.3242   18.3302 C   0  0  0  0  0  0  0  0  0  0  0  0
    9.6599   -4.1551   16.4796 N   0  0  0  0  0  0  0  0  0  0  0  0
    7.0644   -6.4612   15.7375 N   0  0  0  0  0  0  0  0  0  0  0  0
    5.3549   -9.6322   18.3190 C   0  0  0  0  0  0  0  0  0  0  0  0
   10.3704   -4.9638   18.6510 C   0  0  0  0  0  0  0  0  0  0  0  0
    5.5935   -8.6419   17.4234 C   0  0  0  0  0  0  0  0  0  0  0  0
   13.0726   -4.6648   23.3394 O   0  0  0  0  0  0  0  0  0  0  0  0
    8.5955   -6.0705   17.3996 C   0  0  0  0  0  0  0  0  0  0  0  0
    4.6223   -8.3832   16.5030 C   0  0  0  0  0  0  0  0  0  0  0  0
   12.4690   -5.2624   19.9024 C   0  0  0  0  0  0  0  0  0  0  0  0
    3.2548   -9.9919   17.4189 C   0  0  0  0  0  0  0  0  0  0  0  0
   12.4767   -4.7393   22.1790 C   0  0  0  0  0  0  0  0  0  0  0  0
    7.8593   -5.3772   15.3569 N   0  0  0  0  0  0  0  0  0  0  0  0
    7.4412   -6.9038   16.9283 C   0  0  0  0  0  0  0  0  0  0  0  0
  1 21  4  0
  1 23  4  0
  2  5  1  0
  2 13  4  0
  2 16  4  0
  3  6  4  0
  3  7  4  0
  4 13  4  0
  4 19  4  0
  4 24  4  0
  6 23  4  0
  7 16  1  0
  7 21  4  0
  8 18  1  0
  9 20  4  0
  9 22  4  0
 10 17  1  0
 10 25  1  0
 11 16  4  0
 11 19  4  0
 12 15  4  0
 12 22  4  0
 14 24  4  0
 14 25  4  0
 15 17  4  0
 17 20  4  0
 18 23  1  0
 19 25  4  0
M  END
$$$$

 Created by Python create_sdf_string function

 25 28  0  0  0  0  0  0  0  0999 V2000
   13.1533   -5.2399   21.0682 C   0  0  0  0  0  0  0  0  0  0  0  0
   10.4729   -4.0295   17.6135 C   0  0  0  0  0  0  0  0  0  0  0  0
   10.4789   -4.3641   20.9564 C   0  0  0  0  0  0  0  0  0  0  0  0
    8.7421   -5.1412   16.3650 C   0  0  0  0  0  0  0  0  0  0  0  0
   11.4353   -2.9204   17.8044 C   0  0  0  0  0  0  0  0  0  0  0  0
   11.1529   -4.3028   22.1277 C   0  0  0  0  0  0  0  0  0  0  0  0
   11.1290   -4.8502   19.8052 C   0  0  0  0  0  0  0  0  0  0  0  0
   12.4329   -4.2159   24.4224 C   0  0  0  0  0  0  0  0  0  0  0  0
    3.4740   -9.0387   16.5022 C   0  0  0  0  0  0  0  0  0  0  0  0
    6.8384   -7.9290   17.5282 N   0  0  0  0  0  0  0  0  0  0  0  0
    9.4126   -5.9853   18.4899 C   0  0  0  0  0  0  0  0  0  0  0  0
    4.2064  -10.3242   18.3302 C   0  0  0  0  0  0  0  0  0  0  0  0
    9.6599   -4.1551   16.4796 N   0  0  0  0  0  0  0  0  0  0  0  0
    7.0644   -6.4612   15.7375 N   0  0  0  0  0  0  0  0  0  0  0  0
    5.3549   -9.6322   18.3190 C   0  0  0  0  0  0  0  0  0  0  0  0
   10.3704   -4.9638   18.6510 C   0  0  0  0  0  0  0  0  0  0  0  0
    5.5935   -8.6419   17.4234 C   0  0  0  0  0  0  0  0  0  0  0  0
   13.0726   -4.6648   23.3394 O   0  0  0  0  0  0  0  0  0  0  0  0
    8.5955   -6.0705   17.3996 C   0  0  0  0  0  0  0  0  0  0  0  0
    4.6223   -8.3832   16.5030 C   0  0  0  0  0  0  0  0  0  0  0  0
   12.4690   -5.2624   19.9024 C   0  0  0  0  0  0  0  0  0  0  0  0
    3.2548   -9.9919   17.4189 C   0  0  0  0  0  0  0  0  0  0  0  0
   12.4767   -4.7393   22.1790 C   0  0  0  0  0  0  0  0  0  0  0  0
    7.8593   -5.3772   15.3569 N   0  0  0  0  0  0  0  0  0  0  0  0
    7.4412   -6.9038   16.9283 C   0  0  0  0  0  0  0  0  0  0  0  0
  1 21  4  0
  1 23  4  0
  2  5  1  0
  2 13  4  0
  2 16  4  0
  3  6  4  0
  3  7  4  0
  4 13  4  0
  4 19  4  0
  4 24  4  0
  6 23  4  0
  7 16  1  0
  7 21  4  0
  8 18  1  0
  9 20  4  0
  9 22  4  0
 10 17  1  0
 10 25  1  0
 11 16  4  0
 11 19  4  0
 12 15  4  0
 12 22  4  0
 14 24  4  0
 14 25  4  0
 15 17  4  0
 17 20  4  0
 18 23  1  0
 19 25  4  0
M  END
$$$$

 Created by Python create_sdf_string function

 25 28  0  0  0  0  0  0  0  0999 V2000
   13.1533   -5.2399   21.0682 C   0  0  0  0  0  0  0  0  0  0  0  0
   10.4729   -4.0295   17.6135 C   0  0  0  0  0  0  0  0  0  0  0  0
   10.4789   -4.3641   20.9564 C   0  0  0  0  0  0  0  0  0  0  0  0
    8.7421   -5.1412   16.3650 C   0  0  0  0  0  0  0  0  0  0  0  0
   11.4353   -2.9204   17.8044 C   0  0  0  0  0  0  0  0  0  0  0  0
   11.1529   -4.3028   22.1277 C   0  0  0  0  0  0  0  0  0  0  0  0
   11.1290   -4.8502   19.8052 C   0  0  0  0  0  0  0  0  0  0  0  0
   12.4329   -4.2159   24.4224 C   0  0  0  0  0  0  0  0  0  0  0  0
    3.4740   -9.0387   16.5022 C   0  0  0  0  0  0  0  0  0  0  0  0
    6.8384   -7.9290   17.5282 N   0  0  0  0  0  0  0  0  0  0  0  0
    9.4126   -5.9853   18.4899 C   0  0  0  0  0  0  0  0  0  0  0  0
    4.2064  -10.3242   18.3302 C   0  0  0  0  0  0  0  0  0  0  0  0
    9.6599   -4.1551   16.4796 N   0  0  0  0  0  0  0  0  0  0  0  0
    7.0644   -6.4612   15.7375 N   0  0  0  0  0  0  0  0  0  0  0  0
    5.3549   -9.6322   18.3190 C   0  0  0  0  0  0  0  0  0  0  0  0
   10.3704   -4.9638   18.6510 C   0  0  0  0  0  0  0  0  0  0  0  0
    5.5935   -8.6419   17.4234 C   0  0  0  0  0  0  0  0  0  0  0  0
   13.0726   -4.6648   23.3394 O   0  0  0  0  0  0  0  0  0  0  0  0
    8.5955   -6.0705   17.3996 C   0  0  0  0  0  0  0  0  0  0  0  0
    4.6223   -8.3832   16.5030 C   0  0  0  0  0  0  0  0  0  0  0  0
   12.4690   -5.2624   19.9024 C   0  0  0  0  0  0  0  0  0  0  0  0
    3.2548   -9.9919   17.4189 C   0  0  0  0  0  0  0  0  0  0  0  0
   12.4767   -4.7393   22.1790 C   0  0  0  0  0  0  0  0  0  0  0  0
    7.8593   -5.3772   15.3569 N   0  0  0  0  0  0  0  0  0  0  0  0
    7.4412   -6.9038   16.9283 C   0  0  0  0  0  0  0  0  0  0  0  0
  1 21  4  0
  1 23  4  0
  2  5  1  0
  2 13  4  0
  2 16  4  0
  3  6  4  0
  3  7  4  0
  4 13  4  0
  4 19  4  0
  4 24  4  0
  6 23  4  0
  7 16  1  0
  7 21  4  0
  8 18  1  0
  9 20  4  0
  9 22  4  0
 10 17  1  0
 10 25  1  0
 11 16  4  0
 11 19  4  0
 12 15  4  0
 12 22  4  0
 14 24  4  0
 14 25  4  0
 15 17  4  0
 17 20  4  0
 18 23  1  0
 19 25  4  0
M  END
$$$$

 Created by Python create_sdf_string function

 25 28  0  0  0  0  0  0  0  0999 V2000
   13.1533   -5.2399   21.0682 C   0  0  0  0  0  0  0  0  0  0  0  0
   10.4729   -4.0295   17.6135 C   0  0  0  0  0  0  0  0  0  0  0  0
   10.4789   -4.3641   20.9564 C   0  0  0  0  0  0  0  0  0  0  0  0
    8.7421   -5.1412   16.3650 C   0  0  0  0  0  0  0  0  0  0  0  0
   11.4353   -2.9204   17.8044 C   0  0  0  0  0  0  0  0  0  0  0  0
   11.1529   -4.3028   22.1277 C   0  0  0  0  0  0  0  0  0  0  0  0
   11.1290   -4.8502   19.8052 C   0  0  0  0  0  0  0  0  0  0  0  0
   12.4329   -4.2159   24.4224 C   0  0  0  0  0  0  0  0  0  0  0  0
    3.4740   -9.0387   16.5022 C   0  0  0  0  0  0  0  0  0  0  0  0
    6.8384   -7.9290   17.5282 N   0  0  0  0  0  0  0  0  0  0  0  0
    9.4126   -5.9853   18.4899 C   0  0  0  0  0  0  0  0  0  0  0  0
    4.2064  -10.3242   18.3302 C   0  0  0  0  0  0  0  0  0  0  0  0
    9.6599   -4.1551   16.4796 N   0  0  0  0  0  0  0  0  0  0  0  0
    7.0644   -6.4612   15.7375 N   0  0  0  0  0  0  0  0  0  0  0  0
    5.3549   -9.6322   18.3190 C   0  0  0  0  0  0  0  0  0  0  0  0
   10.3704   -4.9638   18.6510 C   0  0  0  0  0  0  0  0  0  0  0  0
    5.5935   -8.6419   17.4234 C   0  0  0  0  0  0  0  0  0  0  0  0
   13.0726   -4.6648   23.3394 O   0  0  0  0  0  0  0  0  0  0  0  0
    8.5955   -6.0705   17.3996 C   0  0  0  0  0  0  0  0  0  0  0  0
    4.6223   -8.3832   16.5030 C   0  0  0  0  0  0  0  0  0  0  0  0
   12.4690   -5.2624   19.9024 C   0  0  0  0  0  0  0  0  0  0  0  0
    3.2548   -9.9919   17.4189 C   0  0  0  0  0  0  0  0  0  0  0  0
   12.4767   -4.7393   22.1790 C   0  0  0  0  0  0  0  0  0  0  0  0
    7.8593   -5.3772   15.3569 N   0  0  0  0  0  0  0  0  0  0  0  0
    7.4412   -6.9038   16.9283 C   0  0  0  0  0  0  0  0  0  0  0  0
  1 21  4  0
  1 23  4  0
  2  5  1  0
  2 13  4  0
  2 16  4  0
  3  6  4  0
  3  7  4  0
  4 13  4  0
  4 19  4  0
  4 24  4  0
  6 23  4  0
  7 16  1  0
  7 21  4  0
  8 18  1  0
  9 20  4  0
  9 22  4  0
 10 17  1  0
 10 25  1  0
 11 16  4  0
 11 19  4  0
 12 15  4  0
 12 22  4  0
 14 24  4  0
 14 25  4  0
 15 17  4  0
 17 20  4  0
 18 23  1  0
 19 25  4  0
M  END
$$$$

 Created by Python create_sdf_string function

 25 28  0  0  0  0  0  0  0  0999 V2000
   13.1533   -5.2399   21.0682 C   0  0  0  0  0  0  0  0  0  0  0  0
   10.4729   -4.0295   17.6135 C   0  0  0  0  0  0  0  0  0  0  0  0
   10.4789   -4.3641   20.9564 C   0  0  0  0  0  0  0  0  0  0  0  0
    8.7421   -5.1412   16.3650 C   0  0  0  0  0  0  0  0  0  0  0  0
   11.4353   -2.9204   17.8044 C   0  0  0  0  0  0  0  0  0  0  0  0
   11.1529   -4.3028   22.1277 C   0  0  0  0  0  0  0  0  0  0  0  0
   11.1290   -4.8502   19.8052 C   0  0  0  0  0  0  0  0  0  0  0  0
   12.4329   -4.2159   24.4224 C   0  0  0  0  0  0  0  0  0  0  0  0
    3.4740   -9.0387   16.5022 C   0  0  0  0  0  0  0  0  0  0  0  0
    6.8384   -7.9290   17.5282 N   0  0  0  0  0  0  0  0  0  0  0  0
    9.4126   -5.9853   18.4899 C   0  0  0  0  0  0  0  0  0  0  0  0
    4.2064  -10.3242   18.3302 C   0  0  0  0  0  0  0  0  0  0  0  0
    9.6599   -4.1551   16.4796 N   0  0  0  0  0  0  0  0  0  0  0  0
    7.0644   -6.4612   15.7375 N   0  0  0  0  0  0  0  0  0  0  0  0
    5.3549   -9.6322   18.3190 C   0  0  0  0  0  0  0  0  0  0  0  0
   10.3704   -4.9638   18.6510 C   0  0  0  0  0  0  0  0  0  0  0  0
    5.5935   -8.6419   17.4234 C   0  0  0  0  0  0  0  0  0  0  0  0
   13.0726   -4.6648   23.3394 O   0  0  0  0  0  0  0  0  0  0  0  0
    8.5955   -6.0705   17.3996 C   0  0  0  0  0  0  0  0  0  0  0  0
    4.6223   -8.3832   16.5030 C   0  0  0  0  0  0  0  0  0  0  0  0
   12.4690   -5.2624   19.9024 C   0  0  0  0  0  0  0  0  0  0  0  0
    3.2548   -9.9919   17.4189 C   0  0  0  0  0  0  0  0  0  0  0  0
   12.4767   -4.7393   22.1790 C   0  0  0  0  0  0  0  0  0  0  0  0
    7.8593   -5.3772   15.3569 N   0  0  0  0  0  0  0  0  0  0  0  0
    7.4412   -6.9038   16.9283 C   0  0  0  0  0  0  0  0  0  0  0  0
  1 21  4  0
  1 23  4  0
  2  5  1  0
  2 13  4  0
  2 16  4  0
  3  6  4  0
  3  7  4  0
  4 13  4  0
  4 19  4  0
  4 24  4  0
  6 23  4  0
  7 16  1  0
  7 21  4  0
  8 18  1  0
  9 20  4  0
  9 22  4  0
 10 17  1  0
 10 25  1  0
 11 16  4  0
 11 19  4  0
 12 15  4  0
 12 22  4  0
 14 24  4  0
 14 25  4  0
 15 17  4  0
 17 20  4  0
 18 23  1  0
 19 25  4  0
M  END
$$$$

 Created by Python create_sdf_string function

 25 28  0  0  0  0  0  0  0  0999 V2000
   13.1533   -5.2399   21.0682 C   0  0  0  0  0  0  0  0  0  0  0  0
   10.4729   -4.0295   17.6135 C   0  0  0  0  0  0  0  0  0  0  0  0
   10.4789   -4.3641   20.9564 C   0  0  0  0  0  0  0  0  0  0  0  0
    8.7421   -5.1412   16.3650 C   0  0  0  0  0  0  0  0  0  0  0  0
   11.4353   -2.9204   17.8044 C   0  0  0  0  0  0  0  0  0  0  0  0
   11.1529   -4.3028   22.1277 C   0  0  0  0  0  0  0  0  0  0  0  0
   11.1290   -4.8502   19.8052 C   0  0  0  0  0  0  0  0  0  0  0  0
   12.4329   -4.2159   24.4224 C   0  0  0  0  0  0  0  0  0  0  0  0
    3.4740   -9.0387   16.5022 C   0  0  0  0  0  0  0  0  0  0  0  0
    6.8384   -7.9290   17.5282 N   0  0  0  0  0  0  0  0  0  0  0  0
    9.4126   -5.9853   18.4899 C   0  0  0  0  0  0  0  0  0  0  0  0
    4.2064  -10.3242   18.3302 C   0  0  0  0  0  0  0  0  0  0  0  0
    9.6599   -4.1551   16.4796 N   0  0  0  0  0  0  0  0  0  0  0  0
    7.0644   -6.4612   15.7375 N   0  0  0  0  0  0  0  0  0  0  0  0
    5.3549   -9.6322   18.3190 C   0  0  0  0  0  0  0  0  0  0  0  0
   10.3704   -4.9638   18.6510 C   0  0  0  0  0  0  0  0  0  0  0  0
    5.5935   -8.6419   17.4234 C   0  0  0  0  0  0  0  0  0  0  0  0
   13.0726   -4.6648   23.3394 O   0  0  0  0  0  0  0  0  0  0  0  0
    8.5955   -6.0705   17.3996 C   0  0  0  0  0  0  0  0  0  0  0  0
    4.6223   -8.3832   16.5030 C   0  0  0  0  0  0  0  0  0  0  0  0
   12.4690   -5.2624   19.9024 C   0  0  0  0  0  0  0  0  0  0  0  0
    3.2548   -9.9919   17.4189 C   0  0  0  0  0  0  0  0  0  0  0  0
   12.4767   -4.7393   22.1790 C   0  0  0  0  0  0  0  0  0  0  0  0
    7.8593   -5.3772   15.3569 N   0  0  0  0  0  0  0  0  0  0  0  0
    7.4412   -6.9038   16.9283 C   0  0  0  0  0  0  0  0  0  0  0  0
  1 21  4  0
  1 23  4  0
  2  5  1  0
  2 13  4  0
  2 16  4  0
  3  6  4  0
  3  7  4  0
  4 13  4  0
  4 19  4  0
  4 24  4  0
  6 23  4  0
  7 16  1  0
  7 21  4  0
  8 18  1  0
  9 20  4  0
  9 22  4  0
 10 17  1  0
 10 25  1  0
 11 16  4  0
 11 19  4  0
 12 15  4  0
 12 22  4  0
 14 24  4  0
 14 25  4  0
 15 17  4  0
 17 20  4  0
 18 23  1  0
 19 25  4  0
M  END
$$$$

 Created by Python create_sdf_string function

 25 28  0  0  0  0  0  0  0  0999 V2000
   13.1533   -5.2399   21.0682 C   0  0  0  0  0  0  0  0  0  0  0  0
   10.4729   -4.0295   17.6135 C   0  0  0  0  0  0  0  0  0  0  0  0
   10.4789   -4.3641   20.9564 C   0  0  0  0  0  0  0  0  0  0  0  0
    8.7421   -5.1412   16.3650 C   0  0  0  0  0  0  0  0  0  0  0  0
   11.4353   -2.9204   17.8044 C   0  0  0  0  0  0  0  0  0  0  0  0
   11.1529   -4.3028   22.1277 C   0  0  0  0  0  0  0  0  0  0  0  0
   11.1290   -4.8502   19.8052 C   0  0  0  0  0  0  0  0  0  0  0  0
   12.4329   -4.2159   24.4224 C   0  0  0  0  0  0  0  0  0  0  0  0
    3.4740   -9.0387   16.5022 C   0  0  0  0  0  0  0  0  0  0  0  0
    6.8384   -7.9290   17.5282 N   0  0  0  0  0  0  0  0  0  0  0  0
    9.4126   -5.9853   18.4899 C   0  0  0  0  0  0  0  0  0  0  0  0
    4.2064  -10.3242   18.3302 C   0  0  0  0  0  0  0  0  0  0  0  0
    9.6599   -4.1551   16.4796 N   0  0  0  0  0  0  0  0  0  0  0  0
    7.0644   -6.4612   15.7375 N   0  0  0  0  0  0  0  0  0  0  0  0
    5.3549   -9.6322   18.3190 C   0  0  0  0  0  0  0  0  0  0  0  0
   10.3704   -4.9638   18.6510 C   0  0  0  0  0  0  0  0  0  0  0  0
    5.5935   -8.6419   17.4234 C   0  0  0  0  0  0  0  0  0  0  0  0
   13.0726   -4.6648   23.3394 O   0  0  0  0  0  0  0  0  0  0  0  0
    8.5955   -6.0705   17.3996 C   0  0  0  0  0  0  0  0  0  0  0  0
    4.6223   -8.3832   16.5030 C   0  0  0  0  0  0  0  0  0  0  0  0
   12.4690   -5.2624   19.9024 C   0  0  0  0  0  0  0  0  0  0  0  0
    3.2548   -9.9919   17.4189 C   0  0  0  0  0  0  0  0  0  0  0  0
   12.4767   -4.7393   22.1790 C   0  0  0  0  0  0  0  0  0  0  0  0
    7.8593   -5.3772   15.3569 N   0  0  0  0  0  0  0  0  0  0  0  0
    7.4412   -6.9038   16.9283 C   0  0  0  0  0  0  0  0  0  0  0  0
  1 21  4  0
  1 23  4  0
  2  5  1  0
  2 13  4  0
  2 16  4  0
  3  6  4  0
  3  7  4  0
  4 13  4  0
  4 19  4  0
  4 24  4  0
  6 23  4  0
  7 16  1  0
  7 21  4  0
  8 18  1  0
  9 20  4  0
  9 22  4  0
 10 17  1  0
 10 25  1  0
 11 16  4  0
 11 19  4  0
 12 15  4  0
 12 22  4  0
 14 24  4  0
 14 25  4  0
 15 17  4  0
 17 20  4  0
 18 23  1  0
 19 25  4  0
M  END
$$$$

 Created by Python create_sdf_string function

 25 28  0  0  0  0  0  0  0  0999 V2000
   13.1533   -5.2399   21.0682 C   0  0  0  0  0  0  0  0  0  0  0  0
   10.4729   -4.0295   17.6135 C   0  0  0  0  0  0  0  0  0  0  0  0
   10.4789   -4.3641   20.9564 C   0  0  0  0  0  0  0  0  0  0  0  0
    8.7421   -5.1412   16.3650 C   0  0  0  0  0  0  0  0  0  0  0  0
   11.4353   -2.9204   17.8044 C   0  0  0  0  0  0  0  0  0  0  0  0
   11.1529   -4.3028   22.1277 C   0  0  0  0  0  0  0  0  0  0  0  0
   11.1290   -4.8502   19.8052 C   0  0  0  0  0  0  0  0  0  0  0  0
   12.4329   -4.2159   24.4224 C   0  0  0  0  0  0  0  0  0  0  0  0
    3.4740   -9.0387   16.5022 C   0  0  0  0  0  0  0  0  0  0  0  0
    6.8384   -7.9290   17.5282 N   0  0  0  0  0  0  0  0  0  0  0  0
    9.4126   -5.9853   18.4899 C   0  0  0  0  0  0  0  0  0  0  0  0
    4.2064  -10.3242   18.3302 C   0  0  0  0  0  0  0  0  0  0  0  0
    9.6599   -4.1551   16.4796 N   0  0  0  0  0  0  0  0  0  0  0  0
    7.0644   -6.4612   15.7375 N   0  0  0  0  0  0  0  0  0  0  0  0
    5.3549   -9.6322   18.3190 C   0  0  0  0  0  0  0  0  0  0  0  0
   10.3704   -4.9638   18.6510 C   0  0  0  0  0  0  0  0  0  0  0  0
    5.5935   -8.6419   17.4234 C   0  0  0  0  0  0  0  0  0  0  0  0
   13.0726   -4.6648   23.3394 O   0  0  0  0  0  0  0  0  0  0  0  0
    8.5955   -6.0705   17.3996 C   0  0  0  0  0  0  0  0  0  0  0  0
    4.6223   -8.3832   16.5030 C   0  0  0  0  0  0  0  0  0  0  0  0
   12.4690   -5.2624   19.9024 C   0  0  0  0  0  0  0  0  0  0  0  0
    3.2548   -9.9919   17.4189 C   0  0  0  0  0  0  0  0  0  0  0  0
   12.4767   -4.7393   22.1790 C   0  0  0  0  0  0  0  0  0  0  0  0
    7.8593   -5.3772   15.3569 N   0  0  0  0  0  0  0  0  0  0  0  0
    7.4412   -6.9038   16.9283 C   0  0  0  0  0  0  0  0  0  0  0  0
  1 21  4  0
  1 23  4  0
  2  5  1  0
  2 13  4  0
  2 16  4  0
  3  6  4  0
  3  7  4  0
  4 13  4  0
  4 19  4  0
  4 24  4  0
  6 23  4  0
  7 16  1  0
  7 21  4  0
  8 18  1  0
  9 20  4  0
  9 22  4  0
 10 17  1  0
 10 25  1  0
 11 16  4  0
 11 19  4  0
 12 15  4  0
 12 22  4  0
 14 24  4  0
 14 25  4  0
 15 17  4  0
 17 20  4  0
 18 23  1  0
 19 25  4  0
M  END
$$$$

 Created by Python create_sdf_string function

 25 28  0  0  0  0  0  0  0  0999 V2000
   13.1533   -5.2399   21.0682 C   0  0  0  0  0  0  0  0  0  0  0  0
   10.4729   -4.0295   17.6135 C   0  0  0  0  0  0  0  0  0  0  0  0
   10.4789   -4.3641   20.9564 C   0  0  0  0  0  0  0  0  0  0  0  0
    8.7421   -5.1412   16.3650 C   0  0  0  0  0  0  0  0  0  0  0  0
   11.4353   -2.9204   17.8044 C   0  0  0  0  0  0  0  0  0  0  0  0
   11.1529   -4.3028   22.1277 C   0  0  0  0  0  0  0  0  0  0  0  0
   11.1290   -4.8502   19.8052 C   0  0  0  0  0  0  0  0  0  0  0  0
   12.4329   -4.2159   24.4224 C   0  0  0  0  0  0  0  0  0  0  0  0
    3.4740   -9.0387   16.5022 C   0  0  0  0  0  0  0  0  0  0  0  0
    6.8384   -7.9290   17.5282 N   0  0  0  0  0  0  0  0  0  0  0  0
    9.4126   -5.9853   18.4899 C   0  0  0  0  0  0  0  0  0  0  0  0
    4.2064  -10.3242   18.3302 C   0  0  0  0  0  0  0  0  0  0  0  0
    9.6599   -4.1551   16.4796 N   0  0  0  0  0  0  0  0  0  0  0  0
    7.0644   -6.4612   15.7375 N   0  0  0  0  0  0  0  0  0  0  0  0
    5.3549   -9.6322   18.3190 C   0  0  0  0  0  0  0  0  0  0  0  0
   10.3704   -4.9638   18.6510 C   0  0  0  0  0  0  0  0  0  0  0  0
    5.5935   -8.6419   17.4234 C   0  0  0  0  0  0  0  0  0  0  0  0
   13.0726   -4.6648   23.3394 O   0  0  0  0  0  0  0  0  0  0  0  0
    8.5955   -6.0705   17.3996 C   0  0  0  0  0  0  0  0  0  0  0  0
    4.6223   -8.3832   16.5030 C   0  0  0  0  0  0  0  0  0  0  0  0
   12.4690   -5.2624   19.9024 C   0  0  0  0  0  0  0  0  0  0  0  0
    3.2548   -9.9919   17.4189 C   0  0  0  0  0  0  0  0  0  0  0  0
   12.4767   -4.7393   22.1790 C   0  0  0  0  0  0  0  0  0  0  0  0
    7.8593   -5.3772   15.3569 N   0  0  0  0  0  0  0  0  0  0  0  0
    7.4412   -6.9038   16.9283 C   0  0  0  0  0  0  0  0  0  0  0  0
  1 21  4  0
  1 23  4  0
  2  5  1  0
  2 13  4  0
  2 16  4  0
  3  6  4  0
  3  7  4  0
  4 13  4  0
  4 19  4  0
  4 24  4  0
  6 23  4  0
  7 16  1  0
  7 21  4  0
  8 18  1  0
  9 20  4  0
  9 22  4  0
 10 17  1  0
 10 25  1  0
 11 16  4  0
 11 19  4  0
 12 15  4  0
 12 22  4  0
 14 24  4  0
 14 25  4  0
 15 17  4  0
 17 20  4  0
 18 23  1  0
 19 25  4  0
M  END
$$$$

 Created by Python create_sdf_string function

 25 28  0  0  0  0  0  0  0  0999 V2000
   13.1533   -5.2399   21.0682 C   0  0  0  0  0  0  0  0  0  0  0  0
   10.4729   -4.0295   17.6135 C   0  0  0  0  0  0  0  0  0  0  0  0
   10.4789   -4.3641   20.9564 C   0  0  0  0  0  0  0  0  0  0  0  0
    8.7421   -5.1412   16.3650 C   0  0  0  0  0  0  0  0  0  0  0  0
   11.4353   -2.9204   17.8044 C   0  0  0  0  0  0  0  0  0  0  0  0
   11.1529   -4.3028   22.1277 C   0  0  0  0  0  0  0  0  0  0  0  0
   11.1290   -4.8502   19.8052 C   0  0  0  0  0  0  0  0  0  0  0  0
   12.4329   -4.2159   24.4224 C   0  0  0  0  0  0  0  0  0  0  0  0
    3.4740   -9.0387   16.5022 C   0  0  0  0  0  0  0  0  0  0  0  0
    6.8384   -7.9290   17.5282 N   0  0  0  0  0  0  0  0  0  0  0  0
    9.4126   -5.9853   18.4899 C   0  0  0  0  0  0  0  0  0  0  0  0
    4.2064  -10.3242   18.3302 C   0  0  0  0  0  0  0  0  0  0  0  0
    9.6599   -4.1551   16.4796 N   0  0  0  0  0  0  0  0  0  0  0  0
    7.0644   -6.4612   15.7375 N   0  0  0  0  0  0  0  0  0  0  0  0
    5.3549   -9.6322   18.3190 C   0  0  0  0  0  0  0  0  0  0  0  0
   10.3704   -4.9638   18.6510 C   0  0  0  0  0  0  0  0  0  0  0  0
    5.5935   -8.6419   17.4234 C   0  0  0  0  0  0  0  0  0  0  0  0
   13.0726   -4.6648   23.3394 O   0  0  0  0  0  0  0  0  0  0  0  0
    8.5955   -6.0705   17.3996 C   0  0  0  0  0  0  0  0  0  0  0  0
    4.6223   -8.3832   16.5030 C   0  0  0  0  0  0  0  0  0  0  0  0
   12.4690   -5.2624   19.9024 C   0  0  0  0  0  0  0  0  0  0  0  0
    3.2548   -9.9919   17.4189 C   0  0  0  0  0  0  0  0  0  0  0  0
   12.4767   -4.7393   22.1790 C   0  0  0  0  0  0  0  0  0  0  0  0
    7.8593   -5.3772   15.3569 N   0  0  0  0  0  0  0  0  0  0  0  0
    7.4412   -6.9038   16.9283 C   0  0  0  0  0  0  0  0  0  0  0  0
  1 21  4  0
  1 23  4  0
  2  5  1  0
  2 13  4  0
  2 16  4  0
  3  6  4  0
  3  7  4  0
  4 13  4  0
  4 19  4  0
  4 24  4  0
  6 23  4  0
  7 16  1  0
  7 21  4  0
  8 18  1  0
  9 20  4  0
  9 22  4  0
 10 17  1  0
 10 25  1  0
 11 16  4  0
 11 19  4  0
 12 15  4  0
 12 22  4  0
 14 24  4  0
 14 25  4  0
 15 17  4  0
 17 20  4  0
 18 23  1  0
 19 25  4  0
M  END
$$$$

 Created by Python create_sdf_string function

 25 28  0  0  0  0  0  0  0  0999 V2000
   13.1533   -5.2399   21.0682 C   0  0  0  0  0  0  0  0  0  0  0  0
   10.4729   -4.0295   17.6135 C   0  0  0  0  0  0  0  0  0  0  0  0
   10.4789   -4.3641   20.9564 C   0  0  0  0  0  0  0  0  0  0  0  0
    8.7421   -5.1412   16.3650 C   0  0  0  0  0  0  0  0  0  0  0  0
   11.4353   -2.9204   17.8044 C   0  0  0  0  0  0  0  0  0  0  0  0
   11.1529   -4.3028   22.1277 C   0  0  0  0  0  0  0  0  0  0  0  0
   11.1290   -4.8502   19.8052 C   0  0  0  0  0  0  0  0  0  0  0  0
   12.4329   -4.2159   24.4224 C   0  0  0  0  0  0  0  0  0  0  0  0
    3.4740   -9.0387   16.5022 C   0  0  0  0  0  0  0  0  0  0  0  0
    6.8384   -7.9290   17.5282 N   0  0  0  0  0  0  0  0  0  0  0  0
    9.4126   -5.9853   18.4899 C   0  0  0  0  0  0  0  0  0  0  0  0
    4.2064  -10.3242   18.3302 C   0  0  0  0  0  0  0  0  0  0  0  0
    9.6599   -4.1551   16.4796 N   0  0  0  0  0  0  0  0  0  0  0  0
    7.0644   -6.4612   15.7375 N   0  0  0  0  0  0  0  0  0  0  0  0
    5.3549   -9.6322   18.3190 C   0  0  0  0  0  0  0  0  0  0  0  0
   10.3704   -4.9638   18.6510 C   0  0  0  0  0  0  0  0  0  0  0  0
    5.5935   -8.6419   17.4234 C   0  0  0  0  0  0  0  0  0  0  0  0
   13.0726   -4.6648   23.3394 O   0  0  0  0  0  0  0  0  0  0  0  0
    8.5955   -6.0705   17.3996 C   0  0  0  0  0  0  0  0  0  0  0  0
    4.6223   -8.3832   16.5030 C   0  0  0  0  0  0  0  0  0  0  0  0
   12.4690   -5.2624   19.9024 C   0  0  0  0  0  0  0  0  0  0  0  0
    3.2548   -9.9919   17.4189 C   0  0  0  0  0  0  0  0  0  0  0  0
   12.4767   -4.7393   22.1790 C   0  0  0  0  0  0  0  0  0  0  0  0
    7.8593   -5.3772   15.3569 N   0  0  0  0  0  0  0  0  0  0  0  0
    7.4412   -6.9038   16.9283 C   0  0  0  0  0  0  0  0  0  0  0  0
  1 21  4  0
  1 23  4  0
  2  5  1  0
  2 13  4  0
  2 16  4  0
  3  6  4  0
  3  7  4  0
  4 13  4  0
  4 19  4  0
  4 24  4  0
  6 23  4  0
  7 16  1  0
  7 21  4  0
  8 18  1  0
  9 20  4  0
  9 22  4  0
 10 17  1  0
 10 25  1  0
 11 16  4  0
 11 19  4  0
 12 15  4  0
 12 22  4  0
 14 24  4  0
 14 25  4  0
 15 17  4  0
 17 20  4  0
 18 23  1  0
 19 25  4  0
M  END
$$$$

 Created by Python create_sdf_string function

 25 28  0  0  0  0  0  0  0  0999 V2000
   13.1533   -5.2399   21.0682 C   0  0  0  0  0  0  0  0  0  0  0  0
   10.4729   -4.0295   17.6135 C   0  0  0  0  0  0  0  0  0  0  0  0
   10.4789   -4.3641   20.9564 C   0  0  0  0  0  0  0  0  0  0  0  0
    8.7421   -5.1412   16.3650 C   0  0  0  0  0  0  0  0  0  0  0  0
   11.4353   -2.9204   17.8044 C   0  0  0  0  0  0  0  0  0  0  0  0
   11.1529   -4.3028   22.1277 C   0  0  0  0  0  0  0  0  0  0  0  0
   11.1290   -4.8502   19.8052 C   0  0  0  0  0  0  0  0  0  0  0  0
   12.4329   -4.2159   24.4224 C   0  0  0  0  0  0  0  0  0  0  0  0
    3.4740   -9.0387   16.5022 C   0  0  0  0  0  0  0  0  0  0  0  0
    6.8384   -7.9290   17.5282 N   0  0  0  0  0  0  0  0  0  0  0  0
    9.4126   -5.9853   18.4899 C   0  0  0  0  0  0  0  0  0  0  0  0
    4.2064  -10.3242   18.3302 C   0  0  0  0  0  0  0  0  0  0  0  0
    9.6599   -4.1551   16.4796 N   0  0  0  0  0  0  0  0  0  0  0  0
    7.0644   -6.4612   15.7375 N   0  0  0  0  0  0  0  0  0  0  0  0
    5.3549   -9.6322   18.3190 C   0  0  0  0  0  0  0  0  0  0  0  0
   10.3704   -4.9638   18.6510 C   0  0  0  0  0  0  0  0  0  0  0  0
    5.5935   -8.6419   17.4234 C   0  0  0  0  0  0  0  0  0  0  0  0
   13.0726   -4.6648   23.3394 O   0  0  0  0  0  0  0  0  0  0  0  0
    8.5955   -6.0705   17.3996 C   0  0  0  0  0  0  0  0  0  0  0  0
    4.6223   -8.3832   16.5030 C   0  0  0  0  0  0  0  0  0  0  0  0
   12.4690   -5.2624   19.9024 C   0  0  0  0  0  0  0  0  0  0  0  0
    3.2548   -9.9919   17.4189 C   0  0  0  0  0  0  0  0  0  0  0  0
   12.4767   -4.7393   22.1790 C   0  0  0  0  0  0  0  0  0  0  0  0
    7.8593   -5.3772   15.3569 N   0  0  0  0  0  0  0  0  0  0  0  0
    7.4412   -6.9038   16.9283 C   0  0  0  0  0  0  0  0  0  0  0  0
  1 21  4  0
  1 23  4  0
  2  5  1  0
  2 13  4  0
  2 16  4  0
  3  6  4  0
  3  7  4  0
  4 13  4  0
  4 19  4  0
  4 24  4  0
  6 23  4  0
  7 16  1  0
  7 21  4  0
  8 18  1  0
  9 20  4  0
  9 22  4  0
 10 17  1  0
 10 25  1  0
 11 16  4  0
 11 19  4  0
 12 15  4  0
 12 22  4  0
 14 24  4  0
 14 25  4  0
 15 17  4  0
 17 20  4  0
 18 23  1  0
 19 25  4  0
M  END
$$$$

 Created by Python create_sdf_string function

 25 28  0  0  0  0  0  0  0  0999 V2000
   13.1533   -5.2399   21.0682 C   0  0  0  0  0  0  0  0  0  0  0  0
   10.4729   -4.0295   17.6135 C   0  0  0  0  0  0  0  0  0  0  0  0
   10.4789   -4.3641   20.9564 C   0  0  0  0  0  0  0  0  0  0  0  0
    8.7421   -5.1412   16.3650 C   0  0  0  0  0  0  0  0  0  0  0  0
   11.4353   -2.9204   17.8044 C   0  0  0  0  0  0  0  0  0  0  0  0
   11.1529   -4.3028   22.1277 C   0  0  0  0  0  0  0  0  0  0  0  0
   11.1290   -4.8502   19.8052 C   0  0  0  0  0  0  0  0  0  0  0  0
   12.4329   -4.2159   24.4224 C   0  0  0  0  0  0  0  0  0  0  0  0
    3.4740   -9.0387   16.5022 C   0  0  0  0  0  0  0  0  0  0  0  0
    6.8384   -7.9290   17.5282 N   0  0  0  0  0  0  0  0  0  0  0  0
    9.4126   -5.9853   18.4899 C   0  0  0  0  0  0  0  0  0  0  0  0
    4.2064  -10.3242   18.3302 C   0  0  0  0  0  0  0  0  0  0  0  0
    9.6599   -4.1551   16.4796 N   0  0  0  0  0  0  0  0  0  0  0  0
    7.0644   -6.4612   15.7375 N   0  0  0  0  0  0  0  0  0  0  0  0
    5.3549   -9.6322   18.3190 C   0  0  0  0  0  0  0  0  0  0  0  0
   10.3704   -4.9638   18.6510 C   0  0  0  0  0  0  0  0  0  0  0  0
    5.5935   -8.6419   17.4234 C   0  0  0  0  0  0  0  0  0  0  0  0
   13.0726   -4.6648   23.3394 O   0  0  0  0  0  0  0  0  0  0  0  0
    8.5955   -6.0705   17.3996 C   0  0  0  0  0  0  0  0  0  0  0  0
    4.6223   -8.3832   16.5030 C   0  0  0  0  0  0  0  0  0  0  0  0
   12.4690   -5.2624   19.9024 C   0  0  0  0  0  0  0  0  0  0  0  0
    3.2548   -9.9919   17.4189 C   0  0  0  0  0  0  0  0  0  0  0  0
   12.4767   -4.7393   22.1790 C   0  0  0  0  0  0  0  0  0  0  0  0
    7.8593   -5.3772   15.3569 N   0  0  0  0  0  0  0  0  0  0  0  0
    7.4412   -6.9038   16.9283 C   0  0  0  0  0  0  0  0  0  0  0  0
  1 21  4  0
  1 23  4  0
  2  5  1  0
  2 13  4  0
  2 16  4  0
  3  6  4  0
  3  7  4  0
  4 13  4  0
  4 19  4  0
  4 24  4  0
  6 23  4  0
  7 16  1  0
  7 21  4  0
  8 18  1  0
  9 20  4  0
  9 22  4  0
 10 17  1  0
 10 25  1  0
 11 16  4  0
 11 19  4  0
 12 15  4  0
 12 22  4  0
 14 24  4  0
 14 25  4  0
 15 17  4  0
 17 20  4  0
 18 23  1  0
 19 25  4  0
M  END
$$$$

 Created by Python create_sdf_string function

 25 28  0  0  0  0  0  0  0  0999 V2000
   13.1533   -5.2399   21.0682 C   0  0  0  0  0  0  0  0  0  0  0  0
   10.4729   -4.0295   17.6135 C   0  0  0  0  0  0  0  0  0  0  0  0
   10.4789   -4.3641   20.9564 C   0  0  0  0  0  0  0  0  0  0  0  0
    8.7421   -5.1412   16.3650 C   0  0  0  0  0  0  0  0  0  0  0  0
   11.4353   -2.9204   17.8044 C   0  0  0  0  0  0  0  0  0  0  0  0
   11.1529   -4.3028   22.1277 C   0  0  0  0  0  0  0  0  0  0  0  0
   11.1290   -4.8502   19.8052 C   0  0  0  0  0  0  0  0  0  0  0  0
   12.4329   -4.2159   24.4224 C   0  0  0  0  0  0  0  0  0  0  0  0
    3.4740   -9.0387   16.5022 C   0  0  0  0  0  0  0  0  0  0  0  0
    6.8384   -7.9290   17.5282 N   0  0  0  0  0  0  0  0  0  0  0  0
    9.4126   -5.9853   18.4899 C   0  0  0  0  0  0  0  0  0  0  0  0
    4.2064  -10.3242   18.3302 C   0  0  0  0  0  0  0  0  0  0  0  0
    9.6599   -4.1551   16.4796 N   0  0  0  0  0  0  0  0  0  0  0  0
    7.0644   -6.4612   15.7375 N   0  0  0  0  0  0  0  0  0  0  0  0
    5.3549   -9.6322   18.3190 C   0  0  0  0  0  0  0  0  0  0  0  0
   10.3704   -4.9638   18.6510 C   0  0  0  0  0  0  0  0  0  0  0  0
    5.5935   -8.6419   17.4234 C   0  0  0  0  0  0  0  0  0  0  0  0
   13.0726   -4.6648   23.3394 O   0  0  0  0  0  0  0  0  0  0  0  0
    8.5955   -6.0705   17.3996 C   0  0  0  0  0  0  0  0  0  0  0  0
    4.6223   -8.3832   16.5030 C   0  0  0  0  0  0  0  0  0  0  0  0
   12.4690   -5.2624   19.9024 C   0  0  0  0  0  0  0  0  0  0  0  0
    3.2548   -9.9919   17.4189 C   0  0  0  0  0  0  0  0  0  0  0  0
   12.4767   -4.7393   22.1790 C   0  0  0  0  0  0  0  0  0  0  0  0
    7.8593   -5.3772   15.3569 N   0  0  0  0  0  0  0  0  0  0  0  0
    7.4412   -6.9038   16.9283 C   0  0  0  0  0  0  0  0  0  0  0  0
  1 21  4  0
  1 23  4  0
  2  5  1  0
  2 13  4  0
  2 16  4  0
  3  6  4  0
  3  7  4  0
  4 13  4  0
  4 19  4  0
  4 24  4  0
  6 23  4  0
  7 16  1  0
  7 21  4  0
  8 18  1  0
  9 20  4  0
  9 22  4  0
 10 17  1  0
 10 25  1  0
 11 16  4  0
 11 19  4  0
 12 15  4  0
 12 22  4  0
 14 24  4  0
 14 25  4  0
 15 17  4  0
 17 20  4  0
 18 23  1  0
 19 25  4  0
M  END
$$$$

 Created by Python create_sdf_string function

 25 28  0  0  0  0  0  0  0  0999 V2000
   13.1533   -5.2399   21.0682 C   0  0  0  0  0  0  0  0  0  0  0  0
   10.4729   -4.0295   17.6135 C   0  0  0  0  0  0  0  0  0  0  0  0
   10.4789   -4.3641   20.9564 C   0  0  0  0  0  0  0  0  0  0  0  0
    8.7421   -5.1412   16.3650 C   0  0  0  0  0  0  0  0  0  0  0  0
   11.4353   -2.9204   17.8044 C   0  0  0  0  0  0  0  0  0  0  0  0
   11.1529   -4.3028   22.1277 C   0  0  0  0  0  0  0  0  0  0  0  0
   11.1290   -4.8502   19.8052 C   0  0  0  0  0  0  0  0  0  0  0  0
   12.4329   -4.2159   24.4224 C   0  0  0  0  0  0  0  0  0  0  0  0
    3.4740   -9.0387   16.5022 C   0  0  0  0  0  0  0  0  0  0  0  0
    6.8384   -7.9290   17.5282 N   0  0  0  0  0  0  0  0  0  0  0  0
    9.4126   -5.9853   18.4899 C   0  0  0  0  0  0  0  0  0  0  0  0
    4.2064  -10.3242   18.3302 C   0  0  0  0  0  0  0  0  0  0  0  0
    9.6599   -4.1551   16.4796 N   0  0  0  0  0  0  0  0  0  0  0  0
    7.0644   -6.4612   15.7375 N   0  0  0  0  0  0  0  0  0  0  0  0
    5.3549   -9.6322   18.3190 C   0  0  0  0  0  0  0  0  0  0  0  0
   10.3704   -4.9638   18.6510 C   0  0  0  0  0  0  0  0  0  0  0  0
    5.5935   -8.6419   17.4234 C   0  0  0  0  0  0  0  0  0  0  0  0
   13.0726   -4.6648   23.3394 O   0  0  0  0  0  0  0  0  0  0  0  0
    8.5955   -6.0705   17.3996 C   0  0  0  0  0  0  0  0  0  0  0  0
    4.6223   -8.3832   16.5030 C   0  0  0  0  0  0  0  0  0  0  0  0
   12.4690   -5.2624   19.9024 C   0  0  0  0  0  0  0  0  0  0  0  0
    3.2548   -9.9919   17.4189 C   0  0  0  0  0  0  0  0  0  0  0  0
   12.4767   -4.7393   22.1790 C   0  0  0  0  0  0  0  0  0  0  0  0
    7.8593   -5.3772   15.3569 N   0  0  0  0  0  0  0  0  0  0  0  0
    7.4412   -6.9038   16.9283 C   0  0  0  0  0  0  0  0  0  0  0  0
  1 21  4  0
  1 23  4  0
  2  5  1  0
  2 13  4  0
  2 16  4  0
  3  6  4  0
  3  7  4  0
  4 13  4  0
  4 19  4  0
  4 24  4  0
  6 23  4  0
  7 16  1  0
  7 21  4  0
  8 18  1  0
  9 20  4  0
  9 22  4  0
 10 17  1  0
 10 25  1  0
 11 16  4  0
 11 19  4  0
 12 15  4  0
 12 22  4  0
 14 24  4  0
 14 25  4  0
 15 17  4  0
 17 20  4  0
 18 23  1  0
 19 25  4  0
M  END
$$$$

 Created by Python create_sdf_string function

 25 28  0  0  0  0  0  0  0  0999 V2000
   13.1533   -5.2399   21.0682 C   0  0  0  0  0  0  0  0  0  0  0  0
   10.4729   -4.0295   17.6135 C   0  0  0  0  0  0  0  0  0  0  0  0
   10.4789   -4.3641   20.9564 C   0  0  0  0  0  0  0  0  0  0  0  0
    8.7421   -5.1412   16.3650 C   0  0  0  0  0  0  0  0  0  0  0  0
   11.4353   -2.9204   17.8044 C   0  0  0  0  0  0  0  0  0  0  0  0
   11.1529   -4.3028   22.1277 C   0  0  0  0  0  0  0  0  0  0  0  0
   11.1290   -4.8502   19.8052 C   0  0  0  0  0  0  0  0  0  0  0  0
   12.4329   -4.2159   24.4224 C   0  0  0  0  0  0  0  0  0  0  0  0
    3.4740   -9.0387   16.5022 C   0  0  0  0  0  0  0  0  0  0  0  0
    6.8384   -7.9290   17.5282 N   0  0  0  0  0  0  0  0  0  0  0  0
    9.4126   -5.9853   18.4899 C   0  0  0  0  0  0  0  0  0  0  0  0
    4.2064  -10.3242   18.3302 C   0  0  0  0  0  0  0  0  0  0  0  0
    9.6599   -4.1551   16.4796 N   0  0  0  0  0  0  0  0  0  0  0  0
    7.0644   -6.4612   15.7375 N   0  0  0  0  0  0  0  0  0  0  0  0
    5.3549   -9.6322   18.3190 C   0  0  0  0  0  0  0  0  0  0  0  0
   10.3704   -4.9638   18.6510 C   0  0  0  0  0  0  0  0  0  0  0  0
    5.5935   -8.6419   17.4234 C   0  0  0  0  0  0  0  0  0  0  0  0
   13.0726   -4.6648   23.3394 O   0  0  0  0  0  0  0  0  0  0  0  0
    8.5955   -6.0705   17.3996 C   0  0  0  0  0  0  0  0  0  0  0  0
    4.6223   -8.3832   16.5030 C   0  0  0  0  0  0  0  0  0  0  0  0
   12.4690   -5.2624   19.9024 C   0  0  0  0  0  0  0  0  0  0  0  0
    3.2548   -9.9919   17.4189 C   0  0  0  0  0  0  0  0  0  0  0  0
   12.4767   -4.7393   22.1790 C   0  0  0  0  0  0  0  0  0  0  0  0
    7.8593   -5.3772   15.3569 N   0  0  0  0  0  0  0  0  0  0  0  0
    7.4412   -6.9038   16.9283 C   0  0  0  0  0  0  0  0  0  0  0  0
  1 21  4  0
  1 23  4  0
  2  5  1  0
  2 13  4  0
  2 16  4  0
  3  6  4  0
  3  7  4  0
  4 13  4  0
  4 19  4  0
  4 24  4  0
  6 23  4  0
  7 16  1  0
  7 21  4  0
  8 18  1  0
  9 20  4  0
  9 22  4  0
 10 17  1  0
 10 25  1  0
 11 16  4  0
 11 19  4  0
 12 15  4  0
 12 22  4  0
 14 24  4  0
 14 25  4  0
 15 17  4  0
 17 20  4  0
 18 23  1  0
 19 25  4  0
M  END
$$$$

 Created by Python create_sdf_string function

 25 28  0  0  0  0  0  0  0  0999 V2000
   13.1533   -5.2399   21.0682 C   0  0  0  0  0  0  0  0  0  0  0  0
   10.4729   -4.0295   17.6135 C   0  0  0  0  0  0  0  0  0  0  0  0
   10.4789   -4.3641   20.9564 C   0  0  0  0  0  0  0  0  0  0  0  0
    8.7421   -5.1412   16.3650 C   0  0  0  0  0  0  0  0  0  0  0  0
   11.4353   -2.9204   17.8044 C   0  0  0  0  0  0  0  0  0  0  0  0
   11.1529   -4.3028   22.1277 C   0  0  0  0  0  0  0  0  0  0  0  0
   11.1290   -4.8502   19.8052 C   0  0  0  0  0  0  0  0  0  0  0  0
   12.4329   -4.2159   24.4224 C   0  0  0  0  0  0  0  0  0  0  0  0
    3.4740   -9.0387   16.5022 C   0  0  0  0  0  0  0  0  0  0  0  0
    6.8384   -7.9290   17.5282 N   0  0  0  0  0  0  0  0  0  0  0  0
    9.4126   -5.9853   18.4899 C   0  0  0  0  0  0  0  0  0  0  0  0
    4.2064  -10.3242   18.3302 C   0  0  0  0  0  0  0  0  0  0  0  0
    9.6599   -4.1551   16.4796 N   0  0  0  0  0  0  0  0  0  0  0  0
    7.0644   -6.4612   15.7375 N   0  0  0  0  0  0  0  0  0  0  0  0
    5.3549   -9.6322   18.3190 C   0  0  0  0  0  0  0  0  0  0  0  0
   10.3704   -4.9638   18.6510 C   0  0  0  0  0  0  0  0  0  0  0  0
    5.5935   -8.6419   17.4234 C   0  0  0  0  0  0  0  0  0  0  0  0
   13.0726   -4.6648   23.3394 O   0  0  0  0  0  0  0  0  0  0  0  0
    8.5955   -6.0705   17.3996 C   0  0  0  0  0  0  0  0  0  0  0  0
    4.6223   -8.3832   16.5030 C   0  0  0  0  0  0  0  0  0  0  0  0
   12.4690   -5.2624   19.9024 C   0  0  0  0  0  0  0  0  0  0  0  0
    3.2548   -9.9919   17.4189 C   0  0  0  0  0  0  0  0  0  0  0  0
   12.4767   -4.7393   22.1790 C   0  0  0  0  0  0  0  0  0  0  0  0
    7.8593   -5.3772   15.3569 N   0  0  0  0  0  0  0  0  0  0  0  0
    7.4412   -6.9038   16.9283 C   0  0  0  0  0  0  0  0  0  0  0  0
  1 21  4  0
  1 23  4  0
  2  5  1  0
  2 13  4  0
  2 16  4  0
  3  6  4  0
  3  7  4  0
  4 13  4  0
  4 19  4  0
  4 24  4  0
  6 23  4  0
  7 16  1  0
  7 21  4  0
  8 18  1  0
  9 20  4  0
  9 22  4  0
 10 17  1  0
 10 25  1  0
 11 16  4  0
 11 19  4  0
 12 15  4  0
 12 22  4  0
 14 24  4  0
 14 25  4  0
 15 17  4  0
 17 20  4  0
 18 23  1  0
 19 25  4  0
M  END
$$$$

 Created by Python create_sdf_string function

 25 28  0  0  0  0  0  0  0  0999 V2000
   13.1533   -5.2399   21.0682 C   0  0  0  0  0  0  0  0  0  0  0  0
   10.4729   -4.0295   17.6135 C   0  0  0  0  0  0  0  0  0  0  0  0
   10.4789   -4.3641   20.9564 C   0  0  0  0  0  0  0  0  0  0  0  0
    8.7421   -5.1412   16.3650 C   0  0  0  0  0  0  0  0  0  0  0  0
   11.4353   -2.9204   17.8044 C   0  0  0  0  0  0  0  0  0  0  0  0
   11.1529   -4.3028   22.1277 C   0  0  0  0  0  0  0  0  0  0  0  0
   11.1290   -4.8502   19.8052 C   0  0  0  0  0  0  0  0  0  0  0  0
   12.4329   -4.2159   24.4224 C   0  0  0  0  0  0  0  0  0  0  0  0
    3.4740   -9.0387   16.5022 C   0  0  0  0  0  0  0  0  0  0  0  0
    6.8384   -7.9290   17.5282 N   0  0  0  0  0  0  0  0  0  0  0  0
    9.4126   -5.9853   18.4899 C   0  0  0  0  0  0  0  0  0  0  0  0
    4.2064  -10.3242   18.3302 C   0  0  0  0  0  0  0  0  0  0  0  0
    9.6599   -4.1551   16.4796 N   0  0  0  0  0  0  0  0  0  0  0  0
    7.0644   -6.4612   15.7375 N   0  0  0  0  0  0  0  0  0  0  0  0
    5.3549   -9.6322   18.3190 C   0  0  0  0  0  0  0  0  0  0  0  0
   10.3704   -4.9638   18.6510 C   0  0  0  0  0  0  0  0  0  0  0  0
    5.5935   -8.6419   17.4234 C   0  0  0  0  0  0  0  0  0  0  0  0
   13.0726   -4.6648   23.3394 O   0  0  0  0  0  0  0  0  0  0  0  0
    8.5955   -6.0705   17.3996 C   0  0  0  0  0  0  0  0  0  0  0  0
    4.6223   -8.3832   16.5030 C   0  0  0  0  0  0  0  0  0  0  0  0
   12.4690   -5.2624   19.9024 C   0  0  0  0  0  0  0  0  0  0  0  0
    3.2548   -9.9919   17.4189 C   0  0  0  0  0  0  0  0  0  0  0  0
   12.4767   -4.7393   22.1790 C   0  0  0  0  0  0  0  0  0  0  0  0
    7.8593   -5.3772   15.3569 N   0  0  0  0  0  0  0  0  0  0  0  0
    7.4412   -6.9038   16.9283 C   0  0  0  0  0  0  0  0  0  0  0  0
  1 21  4  0
  1 23  4  0
  2  5  1  0
  2 13  4  0
  2 16  4  0
  3  6  4  0
  3  7  4  0
  4 13  4  0
  4 19  4  0
  4 24  4  0
  6 23  4  0
  7 16  1  0
  7 21  4  0
  8 18  1  0
  9 20  4  0
  9 22  4  0
 10 17  1  0
 10 25  1  0
 11 16  4  0
 11 19  4  0
 12 15  4  0
 12 22  4  0
 14 24  4  0
 14 25  4  0
 15 17  4  0
 17 20  4  0
 18 23  1  0
 19 25  4  0
M  END
$$$$

 Created by Python create_sdf_string function

 25 28  0  0  0  0  0  0  0  0999 V2000
   13.1533   -5.2399   21.0682 C   0  0  0  0  0  0  0  0  0  0  0  0
   10.4729   -4.0295   17.6135 C   0  0  0  0  0  0  0  0  0  0  0  0
   10.4789   -4.3641   20.9564 C   0  0  0  0  0  0  0  0  0  0  0  0
    8.7421   -5.1412   16.3650 C   0  0  0  0  0  0  0  0  0  0  0  0
   11.4353   -2.9204   17.8044 C   0  0  0  0  0  0  0  0  0  0  0  0
   11.1529   -4.3028   22.1277 C   0  0  0  0  0  0  0  0  0  0  0  0
   11.1290   -4.8502   19.8052 C   0  0  0  0  0  0  0  0  0  0  0  0
   12.4329   -4.2159   24.4224 C   0  0  0  0  0  0  0  0  0  0  0  0
    3.4740   -9.0387   16.5022 C   0  0  0  0  0  0  0  0  0  0  0  0
    6.8384   -7.9290   17.5282 N   0  0  0  0  0  0  0  0  0  0  0  0
    9.4126   -5.9853   18.4899 C   0  0  0  0  0  0  0  0  0  0  0  0
    4.2064  -10.3242   18.3302 C   0  0  0  0  0  0  0  0  0  0  0  0
    9.6599   -4.1551   16.4796 N   0  0  0  0  0  0  0  0  0  0  0  0
    7.0644   -6.4612   15.7375 N   0  0  0  0  0  0  0  0  0  0  0  0
    5.3549   -9.6322   18.3190 C   0  0  0  0  0  0  0  0  0  0  0  0
   10.3704   -4.9638   18.6510 C   0  0  0  0  0  0  0  0  0  0  0  0
    5.5935   -8.6419   17.4234 C   0  0  0  0  0  0  0  0  0  0  0  0
   13.0726   -4.6648   23.3394 O   0  0  0  0  0  0  0  0  0  0  0  0
    8.5955   -6.0705   17.3996 C   0  0  0  0  0  0  0  0  0  0  0  0
    4.6223   -8.3832   16.5030 C   0  0  0  0  0  0  0  0  0  0  0  0
   12.4690   -5.2624   19.9024 C   0  0  0  0  0  0  0  0  0  0  0  0
    3.2548   -9.9919   17.4189 C   0  0  0  0  0  0  0  0  0  0  0  0
   12.4767   -4.7393   22.1790 C   0  0  0  0  0  0  0  0  0  0  0  0
    7.8593   -5.3772   15.3569 N   0  0  0  0  0  0  0  0  0  0  0  0
    7.4412   -6.9038   16.9283 C   0  0  0  0  0  0  0  0  0  0  0  0
  1 21  4  0
  1 23  4  0
  2  5  1  0
  2 13  4  0
  2 16  4  0
  3  6  4  0
  3  7  4  0
  4 13  4  0
  4 19  4  0
  4 24  4  0
  6 23  4  0
  7 16  1  0
  7 21  4  0
  8 18  1  0
  9 20  4  0
  9 22  4  0
 10 17  1  0
 10 25  1  0
 11 16  4  0
 11 19  4  0
 12 15  4  0
 12 22  4  0
 14 24  4  0
 14 25  4  0
 15 17  4  0
 17 20  4  0
 18 23  1  0
 19 25  4  0
M  END
$$$$

 Created by Python create_sdf_string function

 25 28  0  0  0  0  0  0  0  0999 V2000
   13.1533   -5.2399   21.0682 C   0  0  0  0  0  0  0  0  0  0  0  0
   10.4729   -4.0295   17.6135 C   0  0  0  0  0  0  0  0  0  0  0  0
   10.4789   -4.3641   20.9564 C   0  0  0  0  0  0  0  0  0  0  0  0
    8.7421   -5.1412   16.3650 C   0  0  0  0  0  0  0  0  0  0  0  0
   11.4353   -2.9204   17.8044 C   0  0  0  0  0  0  0  0  0  0  0  0
   11.1529   -4.3028   22.1277 C   0  0  0  0  0  0  0  0  0  0  0  0
   11.1290   -4.8502   19.8052 C   0  0  0  0  0  0  0  0  0  0  0  0
   12.4329   -4.2159   24.4224 C   0  0  0  0  0  0  0  0  0  0  0  0
    3.4740   -9.0387   16.5022 C   0  0  0  0  0  0  0  0  0  0  0  0
    6.8384   -7.9290   17.5282 N   0  0  0  0  0  0  0  0  0  0  0  0
    9.4126   -5.9853   18.4899 C   0  0  0  0  0  0  0  0  0  0  0  0
    4.2064  -10.3242   18.3302 C   0  0  0  0  0  0  0  0  0  0  0  0
    9.6599   -4.1551   16.4796 N   0  0  0  0  0  0  0  0  0  0  0  0
    7.0644   -6.4612   15.7375 N   0  0  0  0  0  0  0  0  0  0  0  0
    5.3549   -9.6322   18.3190 C   0  0  0  0  0  0  0  0  0  0  0  0
   10.3704   -4.9638   18.6510 C   0  0  0  0  0  0  0  0  0  0  0  0
    5.5935   -8.6419   17.4234 C   0  0  0  0  0  0  0  0  0  0  0  0
   13.0726   -4.6648   23.3394 O   0  0  0  0  0  0  0  0  0  0  0  0
    8.5955   -6.0705   17.3996 C   0  0  0  0  0  0  0  0  0  0  0  0
    4.6223   -8.3832   16.5030 C   0  0  0  0  0  0  0  0  0  0  0  0
   12.4690   -5.2624   19.9024 C   0  0  0  0  0  0  0  0  0  0  0  0
    3.2548   -9.9919   17.4189 C   0  0  0  0  0  0  0  0  0  0  0  0
   12.4767   -4.7393   22.1790 C   0  0  0  0  0  0  0  0  0  0  0  0
    7.8593   -5.3772   15.3569 N   0  0  0  0  0  0  0  0  0  0  0  0
    7.4412   -6.9038   16.9283 C   0  0  0  0  0  0  0  0  0  0  0  0
  1 21  4  0
  1 23  4  0
  2  5  1  0
  2 13  4  0
  2 16  4  0
  3  6  4  0
  3  7  4  0
  4 13  4  0
  4 19  4  0
  4 24  4  0
  6 23  4  0
  7 16  1  0
  7 21  4  0
  8 18  1  0
  9 20  4  0
  9 22  4  0
 10 17  1  0
 10 25  1  0
 11 16  4  0
 11 19  4  0
 12 15  4  0
 12 22  4  0
 14 24  4  0
 14 25  4  0
 15 17  4  0
 17 20  4  0
 18 23  1  0
 19 25  4  0
M  END
$$$$

 Created by Python create_sdf_string function

 25 28  0  0  0  0  0  0  0  0999 V2000
   13.1533   -5.2399   21.0682 C   0  0  0  0  0  0  0  0  0  0  0  0
   10.4729   -4.0295   17.6135 C   0  0  0  0  0  0  0  0  0  0  0  0
   10.4789   -4.3641   20.9564 C   0  0  0  0  0  0  0  0  0  0  0  0
    8.7421   -5.1412   16.3650 C   0  0  0  0  0  0  0  0  0  0  0  0
   11.4353   -2.9204   17.8044 C   0  0  0  0  0  0  0  0  0  0  0  0
   11.1529   -4.3028   22.1277 C   0  0  0  0  0  0  0  0  0  0  0  0
   11.1290   -4.8502   19.8052 C   0  0  0  0  0  0  0  0  0  0  0  0
   12.4329   -4.2159   24.4224 C   0  0  0  0  0  0  0  0  0  0  0  0
    3.4740   -9.0387   16.5022 C   0  0  0  0  0  0  0  0  0  0  0  0
    6.8384   -7.9290   17.5282 N   0  0  0  0  0  0  0  0  0  0  0  0
    9.4126   -5.9853   18.4899 C   0  0  0  0  0  0  0  0  0  0  0  0
    4.2064  -10.3242   18.3302 C   0  0  0  0  0  0  0  0  0  0  0  0
    9.6599   -4.1551   16.4796 N   0  0  0  0  0  0  0  0  0  0  0  0
    7.0644   -6.4612   15.7375 N   0  0  0  0  0  0  0  0  0  0  0  0
    5.3549   -9.6322   18.3190 C   0  0  0  0  0  0  0  0  0  0  0  0
   10.3704   -4.9638   18.6510 C   0  0  0  0  0  0  0  0  0  0  0  0
    5.5935   -8.6419   17.4234 C   0  0  0  0  0  0  0  0  0  0  0  0
   13.0726   -4.6648   23.3394 O   0  0  0  0  0  0  0  0  0  0  0  0
    8.5955   -6.0705   17.3996 C   0  0  0  0  0  0  0  0  0  0  0  0
    4.6223   -8.3832   16.5030 C   0  0  0  0  0  0  0  0  0  0  0  0
   12.4690   -5.2624   19.9024 C   0  0  0  0  0  0  0  0  0  0  0  0
    3.2548   -9.9919   17.4189 C   0  0  0  0  0  0  0  0  0  0  0  0
   12.4767   -4.7393   22.1790 C   0  0  0  0  0  0  0  0  0  0  0  0
    7.8593   -5.3772   15.3569 N   0  0  0  0  0  0  0  0  0  0  0  0
    7.4412   -6.9038   16.9283 C   0  0  0  0  0  0  0  0  0  0  0  0
  1 21  4  0
  1 23  4  0
  2  5  1  0
  2 13  4  0
  2 16  4  0
  3  6  4  0
  3  7  4  0
  4 13  4  0
  4 19  4  0
  4 24  4  0
  6 23  4  0
  7 16  1  0
  7 21  4  0
  8 18  1  0
  9 20  4  0
  9 22  4  0
 10 17  1  0
 10 25  1  0
 11 16  4  0
 11 19  4  0
 12 15  4  0
 12 22  4  0
 14 24  4  0
 14 25  4  0
 15 17  4  0
 17 20  4  0
 18 23  1  0
 19 25  4  0
M  END
$$$$

 Created by Python create_sdf_string function

 25 28  0  0  0  0  0  0  0  0999 V2000
   13.1533   -5.2399   21.0682 C   0  0  0  0  0  0  0  0  0  0  0  0
   10.4729   -4.0295   17.6135 C   0  0  0  0  0  0  0  0  0  0  0  0
   10.4789   -4.3641   20.9564 C   0  0  0  0  0  0  0  0  0  0  0  0
    8.7421   -5.1412   16.3650 C   0  0  0  0  0  0  0  0  0  0  0  0
   11.4353   -2.9204   17.8044 C   0  0  0  0  0  0  0  0  0  0  0  0
   11.1529   -4.3028   22.1277 C   0  0  0  0  0  0  0  0  0  0  0  0
   11.1290   -4.8502   19.8052 C   0  0  0  0  0  0  0  0  0  0  0  0
   12.4329   -4.2159   24.4224 C   0  0  0  0  0  0  0  0  0  0  0  0
    3.4740   -9.0387   16.5022 C   0  0  0  0  0  0  0  0  0  0  0  0
    6.8384   -7.9290   17.5282 N   0  0  0  0  0  0  0  0  0  0  0  0
    9.4126   -5.9853   18.4899 C   0  0  0  0  0  0  0  0  0  0  0  0
    4.2064  -10.3242   18.3302 C   0  0  0  0  0  0  0  0  0  0  0  0
    9.6599   -4.1551   16.4796 N   0  0  0  0  0  0  0  0  0  0  0  0
    7.0644   -6.4612   15.7375 N   0  0  0  0  0  0  0  0  0  0  0  0
    5.3549   -9.6322   18.3190 C   0  0  0  0  0  0  0  0  0  0  0  0
   10.3704   -4.9638   18.6510 C   0  0  0  0  0  0  0  0  0  0  0  0
    5.5935   -8.6419   17.4234 C   0  0  0  0  0  0  0  0  0  0  0  0
   13.0726   -4.6648   23.3394 O   0  0  0  0  0  0  0  0  0  0  0  0
    8.5955   -6.0705   17.3996 C   0  0  0  0  0  0  0  0  0  0  0  0
    4.6223   -8.3832   16.5030 C   0  0  0  0  0  0  0  0  0  0  0  0
   12.4690   -5.2624   19.9024 C   0  0  0  0  0  0  0  0  0  0  0  0
    3.2548   -9.9919   17.4189 C   0  0  0  0  0  0  0  0  0  0  0  0
   12.4767   -4.7393   22.1790 C   0  0  0  0  0  0  0  0  0  0  0  0
    7.8593   -5.3772   15.3569 N   0  0  0  0  0  0  0  0  0  0  0  0
    7.4412   -6.9038   16.9283 C   0  0  0  0  0  0  0  0  0  0  0  0
  1 21  4  0
  1 23  4  0
  2  5  1  0
  2 13  4  0
  2 16  4  0
  3  6  4  0
  3  7  4  0
  4 13  4  0
  4 19  4  0
  4 24  4  0
  6 23  4  0
  7 16  1  0
  7 21  4  0
  8 18  1  0
  9 20  4  0
  9 22  4  0
 10 17  1  0
 10 25  1  0
 11 16  4  0
 11 19  4  0
 12 15  4  0
 12 22  4  0
 14 24  4  0
 14 25  4  0
 15 17  4  0
 17 20  4  0
 18 23  1  0
 19 25  4  0
M  END
$$$$

 Created by Python create_sdf_string function

 25 28  0  0  0  0  0  0  0  0999 V2000
   13.1533   -5.2399   21.0682 C   0  0  0  0  0  0  0  0  0  0  0  0
   10.4729   -4.0295   17.6135 C   0  0  0  0  0  0  0  0  0  0  0  0
   10.4789   -4.3641   20.9564 C   0  0  0  0  0  0  0  0  0  0  0  0
    8.7421   -5.1412   16.3650 C   0  0  0  0  0  0  0  0  0  0  0  0
   11.4353   -2.9204   17.8044 C   0  0  0  0  0  0  0  0  0  0  0  0
   11.1529   -4.3028   22.1277 C   0  0  0  0  0  0  0  0  0  0  0  0
   11.1290   -4.8502   19.8052 C   0  0  0  0  0  0  0  0  0  0  0  0
   12.4329   -4.2159   24.4224 C   0  0  0  0  0  0  0  0  0  0  0  0
    3.4740   -9.0387   16.5022 C   0  0  0  0  0  0  0  0  0  0  0  0
    6.8384   -7.9290   17.5282 N   0  0  0  0  0  0  0  0  0  0  0  0
    9.4126   -5.9853   18.4899 C   0  0  0  0  0  0  0  0  0  0  0  0
    4.2064  -10.3242   18.3302 C   0  0  0  0  0  0  0  0  0  0  0  0
    9.6599   -4.1551   16.4796 N   0  0  0  0  0  0  0  0  0  0  0  0
    7.0644   -6.4612   15.7375 N   0  0  0  0  0  0  0  0  0  0  0  0
    5.3549   -9.6322   18.3190 C   0  0  0  0  0  0  0  0  0  0  0  0
   10.3704   -4.9638   18.6510 C   0  0  0  0  0  0  0  0  0  0  0  0
    5.5935   -8.6419   17.4234 C   0  0  0  0  0  0  0  0  0  0  0  0
   13.0726   -4.6648   23.3394 O   0  0  0  0  0  0  0  0  0  0  0  0
    8.5955   -6.0705   17.3996 C   0  0  0  0  0  0  0  0  0  0  0  0
    4.6223   -8.3832   16.5030 C   0  0  0  0  0  0  0  0  0  0  0  0
   12.4690   -5.2624   19.9024 C   0  0  0  0  0  0  0  0  0  0  0  0
    3.2548   -9.9919   17.4189 C   0  0  0  0  0  0  0  0  0  0  0  0
   12.4767   -4.7393   22.1790 C   0  0  0  0  0  0  0  0  0  0  0  0
    7.8593   -5.3772   15.3569 N   0  0  0  0  0  0  0  0  0  0  0  0
    7.4412   -6.9038   16.9283 C   0  0  0  0  0  0  0  0  0  0  0  0
  1 21  4  0
  1 23  4  0
  2  5  1  0
  2 13  4  0
  2 16  4  0
  3  6  4  0
  3  7  4  0
  4 13  4  0
  4 19  4  0
  4 24  4  0
  6 23  4  0
  7 16  1  0
  7 21  4  0
  8 18  1  0
  9 20  4  0
  9 22  4  0
 10 17  1  0
 10 25  1  0
 11 16  4  0
 11 19  4  0
 12 15  4  0
 12 22  4  0
 14 24  4  0
 14 25  4  0
 15 17  4  0
 17 20  4  0
 18 23  1  0
 19 25  4  0
M  END
$$$$

 Created by Python create_sdf_string function

 25 28  0  0  0  0  0  0  0  0999 V2000
   13.1533   -5.2399   21.0682 C   0  0  0  0  0  0  0  0  0  0  0  0
   10.4729   -4.0295   17.6135 C   0  0  0  0  0  0  0  0  0  0  0  0
   10.4789   -4.3641   20.9564 C   0  0  0  0  0  0  0  0  0  0  0  0
    8.7421   -5.1412   16.3650 C   0  0  0  0  0  0  0  0  0  0  0  0
   11.4353   -2.9204   17.8044 C   0  0  0  0  0  0  0  0  0  0  0  0
   11.1529   -4.3028   22.1277 C   0  0  0  0  0  0  0  0  0  0  0  0
   11.1290   -4.8502   19.8052 C   0  0  0  0  0  0  0  0  0  0  0  0
   12.4329   -4.2159   24.4224 C   0  0  0  0  0  0  0  0  0  0  0  0
    3.4740   -9.0387   16.5022 C   0  0  0  0  0  0  0  0  0  0  0  0
    6.8384   -7.9290   17.5282 N   0  0  0  0  0  0  0  0  0  0  0  0
    9.4126   -5.9853   18.4899 C   0  0  0  0  0  0  0  0  0  0  0  0
    4.2064  -10.3242   18.3302 C   0  0  0  0  0  0  0  0  0  0  0  0
    9.6599   -4.1551   16.4796 N   0  0  0  0  0  0  0  0  0  0  0  0
    7.0644   -6.4612   15.7375 N   0  0  0  0  0  0  0  0  0  0  0  0
    5.3549   -9.6322   18.3190 C   0  0  0  0  0  0  0  0  0  0  0  0
   10.3704   -4.9638   18.6510 C   0  0  0  0  0  0  0  0  0  0  0  0
    5.5935   -8.6419   17.4234 C   0  0  0  0  0  0  0  0  0  0  0  0
   13.0726   -4.6648   23.3394 O   0  0  0  0  0  0  0  0  0  0  0  0
    8.5955   -6.0705   17.3996 C   0  0  0  0  0  0  0  0  0  0  0  0
    4.6223   -8.3832   16.5030 C   0  0  0  0  0  0  0  0  0  0  0  0
   12.4690   -5.2624   19.9024 C   0  0  0  0  0  0  0  0  0  0  0  0
    3.2548   -9.9919   17.4189 C   0  0  0  0  0  0  0  0  0  0  0  0
   12.4767   -4.7393   22.1790 C   0  0  0  0  0  0  0  0  0  0  0  0
    7.8593   -5.3772   15.3569 N   0  0  0  0  0  0  0  0  0  0  0  0
    7.4412   -6.9038   16.9283 C   0  0  0  0  0  0  0  0  0  0  0  0
  1 21  4  0
  1 23  4  0
  2  5  1  0
  2 13  4  0
  2 16  4  0
  3  6  4  0
  3  7  4  0
  4 13  4  0
  4 19  4  0
  4 24  4  0
  6 23  4  0
  7 16  1  0
  7 21  4  0
  8 18  1  0
  9 20  4  0
  9 22  4  0
 10 17  1  0
 10 25  1  0
 11 16  4  0
 11 19  4  0
 12 15  4  0
 12 22  4  0
 14 24  4  0
 14 25  4  0
 15 17  4  0
 17 20  4  0
 18 23  1  0
 19 25  4  0
M  END
$$$$

 Created by Python create_sdf_string function

 25 28  0  0  0  0  0  0  0  0999 V2000
   13.1533   -5.2399   21.0682 C   0  0  0  0  0  0  0  0  0  0  0  0
   10.4729   -4.0295   17.6135 C   0  0  0  0  0  0  0  0  0  0  0  0
   10.4789   -4.3641   20.9564 C   0  0  0  0  0  0  0  0  0  0  0  0
    8.7421   -5.1412   16.3650 C   0  0  0  0  0  0  0  0  0  0  0  0
   11.4353   -2.9204   17.8044 C   0  0  0  0  0  0  0  0  0  0  0  0
   11.1529   -4.3028   22.1277 C   0  0  0  0  0  0  0  0  0  0  0  0
   11.1290   -4.8502   19.8052 C   0  0  0  0  0  0  0  0  0  0  0  0
   12.4329   -4.2159   24.4224 C   0  0  0  0  0  0  0  0  0  0  0  0
    3.4740   -9.0387   16.5022 C   0  0  0  0  0  0  0  0  0  0  0  0
    6.8384   -7.9290   17.5282 N   0  0  0  0  0  0  0  0  0  0  0  0
    9.4126   -5.9853   18.4899 C   0  0  0  0  0  0  0  0  0  0  0  0
    4.2064  -10.3242   18.3302 C   0  0  0  0  0  0  0  0  0  0  0  0
    9.6599   -4.1551   16.4796 N   0  0  0  0  0  0  0  0  0  0  0  0
    7.0644   -6.4612   15.7375 N   0  0  0  0  0  0  0  0  0  0  0  0
    5.3549   -9.6322   18.3190 C   0  0  0  0  0  0  0  0  0  0  0  0
   10.3704   -4.9638   18.6510 C   0  0  0  0  0  0  0  0  0  0  0  0
    5.5935   -8.6419   17.4234 C   0  0  0  0  0  0  0  0  0  0  0  0
   13.0726   -4.6648   23.3394 O   0  0  0  0  0  0  0  0  0  0  0  0
    8.5955   -6.0705   17.3996 C   0  0  0  0  0  0  0  0  0  0  0  0
    4.6223   -8.3832   16.5030 C   0  0  0  0  0  0  0  0  0  0  0  0
   12.4690   -5.2624   19.9024 C   0  0  0  0  0  0  0  0  0  0  0  0
    3.2548   -9.9919   17.4189 C   0  0  0  0  0  0  0  0  0  0  0  0
   12.4767   -4.7393   22.1790 C   0  0  0  0  0  0  0  0  0  0  0  0
    7.8593   -5.3772   15.3569 N   0  0  0  0  0  0  0  0  0  0  0  0
    7.4412   -6.9038   16.9283 C   0  0  0  0  0  0  0  0  0  0  0  0
  1 21  4  0
  1 23  4  0
  2  5  1  0
  2 13  4  0
  2 16  4  0
  3  6  4  0
  3  7  4  0
  4 13  4  0
  4 19  4  0
  4 24  4  0
  6 23  4  0
  7 16  1  0
  7 21  4  0
  8 18  1  0
  9 20  4  0
  9 22  4  0
 10 17  1  0
 10 25  1  0
 11 16  4  0
 11 19  4  0
 12 15  4  0
 12 22  4  0
 14 24  4  0
 14 25  4  0
 15 17  4  0
 17 20  4  0
 18 23  1  0
 19 25  4  0
M  END
$$$$

 Created by Python create_sdf_string function

 25 28  0  0  0  0  0  0  0  0999 V2000
   13.1533   -5.2399   21.0682 C   0  0  0  0  0  0  0  0  0  0  0  0
   10.4729   -4.0295   17.6135 C   0  0  0  0  0  0  0  0  0  0  0  0
   10.4789   -4.3641   20.9564 C   0  0  0  0  0  0  0  0  0  0  0  0
    8.7421   -5.1412   16.3650 C   0  0  0  0  0  0  0  0  0  0  0  0
   11.4353   -2.9204   17.8044 C   0  0  0  0  0  0  0  0  0  0  0  0
   11.1529   -4.3028   22.1277 C   0  0  0  0  0  0  0  0  0  0  0  0
   11.1290   -4.8502   19.8052 C   0  0  0  0  0  0  0  0  0  0  0  0
   12.4329   -4.2159   24.4224 C   0  0  0  0  0  0  0  0  0  0  0  0
    3.4740   -9.0387   16.5022 C   0  0  0  0  0  0  0  0  0  0  0  0
    6.8384   -7.9290   17.5282 N   0  0  0  0  0  0  0  0  0  0  0  0
    9.4126   -5.9853   18.4899 C   0  0  0  0  0  0  0  0  0  0  0  0
    4.2064  -10.3242   18.3302 C   0  0  0  0  0  0  0  0  0  0  0  0
    9.6599   -4.1551   16.4796 N   0  0  0  0  0  0  0  0  0  0  0  0
    7.0644   -6.4612   15.7375 N   0  0  0  0  0  0  0  0  0  0  0  0
    5.3549   -9.6322   18.3190 C   0  0  0  0  0  0  0  0  0  0  0  0
   10.3704   -4.9638   18.6510 C   0  0  0  0  0  0  0  0  0  0  0  0
    5.5935   -8.6419   17.4234 C   0  0  0  0  0  0  0  0  0  0  0  0
   13.0726   -4.6648   23.3394 O   0  0  0  0  0  0  0  0  0  0  0  0
    8.5955   -6.0705   17.3996 C   0  0  0  0  0  0  0  0  0  0  0  0
    4.6223   -8.3832   16.5030 C   0  0  0  0  0  0  0  0  0  0  0  0
   12.4690   -5.2624   19.9024 C   0  0  0  0  0  0  0  0  0  0  0  0
    3.2548   -9.9919   17.4189 C   0  0  0  0  0  0  0  0  0  0  0  0
   12.4767   -4.7393   22.1790 C   0  0  0  0  0  0  0  0  0  0  0  0
    7.8593   -5.3772   15.3569 N   0  0  0  0  0  0  0  0  0  0  0  0
    7.4412   -6.9038   16.9283 C   0  0  0  0  0  0  0  0  0  0  0  0
  1 21  4  0
  1 23  4  0
  2  5  1  0
  2 13  4  0
  2 16  4  0
  3  6  4  0
  3  7  4  0
  4 13  4  0
  4 19  4  0
  4 24  4  0
  6 23  4  0
  7 16  1  0
  7 21  4  0
  8 18  1  0
  9 20  4  0
  9 22  4  0
 10 17  1  0
 10 25  1  0
 11 16  4  0
 11 19  4  0
 12 15  4  0
 12 22  4  0
 14 24  4  0
 14 25  4  0
 15 17  4  0
 17 20  4  0
 18 23  1  0
 19 25  4  0
M  END
$$$$

 Created by Python create_sdf_string function

 25 28  0  0  0  0  0  0  0  0999 V2000
   13.1533   -5.2399   21.0682 C   0  0  0  0  0  0  0  0  0  0  0  0
   10.4729   -4.0295   17.6135 C   0  0  0  0  0  0  0  0  0  0  0  0
   10.4789   -4.3641   20.9564 C   0  0  0  0  0  0  0  0  0  0  0  0
    8.7421   -5.1412   16.3650 C   0  0  0  0  0  0  0  0  0  0  0  0
   11.4353   -2.9204   17.8044 C   0  0  0  0  0  0  0  0  0  0  0  0
   11.1529   -4.3028   22.1277 C   0  0  0  0  0  0  0  0  0  0  0  0
   11.1290   -4.8502   19.8052 C   0  0  0  0  0  0  0  0  0  0  0  0
   12.4329   -4.2159   24.4224 C   0  0  0  0  0  0  0  0  0  0  0  0
    3.4740   -9.0387   16.5022 C   0  0  0  0  0  0  0  0  0  0  0  0
    6.8384   -7.9290   17.5282 N   0  0  0  0  0  0  0  0  0  0  0  0
    9.4126   -5.9853   18.4899 C   0  0  0  0  0  0  0  0  0  0  0  0
    4.2064  -10.3242   18.3302 C   0  0  0  0  0  0  0  0  0  0  0  0
    9.6599   -4.1551   16.4796 N   0  0  0  0  0  0  0  0  0  0  0  0
    7.0644   -6.4612   15.7375 N   0  0  0  0  0  0  0  0  0  0  0  0
    5.3549   -9.6322   18.3190 C   0  0  0  0  0  0  0  0  0  0  0  0
   10.3704   -4.9638   18.6510 C   0  0  0  0  0  0  0  0  0  0  0  0
    5.5935   -8.6419   17.4234 C   0  0  0  0  0  0  0  0  0  0  0  0
   13.0726   -4.6648   23.3394 O   0  0  0  0  0  0  0  0  0  0  0  0
    8.5955   -6.0705   17.3996 C   0  0  0  0  0  0  0  0  0  0  0  0
    4.6223   -8.3832   16.5030 C   0  0  0  0  0  0  0  0  0  0  0  0
   12.4690   -5.2624   19.9024 C   0  0  0  0  0  0  0  0  0  0  0  0
    3.2548   -9.9919   17.4189 C   0  0  0  0  0  0  0  0  0  0  0  0
   12.4767   -4.7393   22.1790 C   0  0  0  0  0  0  0  0  0  0  0  0
    7.8593   -5.3772   15.3569 N   0  0  0  0  0  0  0  0  0  0  0  0
    7.4412   -6.9038   16.9283 C   0  0  0  0  0  0  0  0  0  0  0  0
  1 21  4  0
  1 23  4  0
  2  5  1  0
  2 13  4  0
  2 16  4  0
  3  6  4  0
  3  7  4  0
  4 13  4  0
  4 19  4  0
  4 24  4  0
  6 23  4  0
  7 16  1  0
  7 21  4  0
  8 18  1  0
  9 20  4  0
  9 22  4  0
 10 17  1  0
 10 25  1  0
 11 16  4  0
 11 19  4  0
 12 15  4  0
 12 22  4  0
 14 24  4  0
 14 25  4  0
 15 17  4  0
 17 20  4  0
 18 23  1  0
 19 25  4  0
M  END
$$$$

 Created by Python create_sdf_string function

 25 28  0  0  0  0  0  0  0  0999 V2000
   13.1533   -5.2399   21.0682 C   0  0  0  0  0  0  0  0  0  0  0  0
   10.4729   -4.0295   17.6135 C   0  0  0  0  0  0  0  0  0  0  0  0
   10.4789   -4.3641   20.9564 C   0  0  0  0  0  0  0  0  0  0  0  0
    8.7421   -5.1412   16.3650 C   0  0  0  0  0  0  0  0  0  0  0  0
   11.4353   -2.9204   17.8044 C   0  0  0  0  0  0  0  0  0  0  0  0
   11.1529   -4.3028   22.1277 C   0  0  0  0  0  0  0  0  0  0  0  0
   11.1290   -4.8502   19.8052 C   0  0  0  0  0  0  0  0  0  0  0  0
   12.4329   -4.2159   24.4224 C   0  0  0  0  0  0  0  0  0  0  0  0
    3.4740   -9.0387   16.5022 C   0  0  0  0  0  0  0  0  0  0  0  0
    6.8384   -7.9290   17.5282 N   0  0  0  0  0  0  0  0  0  0  0  0
    9.4126   -5.9853   18.4899 C   0  0  0  0  0  0  0  0  0  0  0  0
    4.2064  -10.3242   18.3302 C   0  0  0  0  0  0  0  0  0  0  0  0
    9.6599   -4.1551   16.4796 N   0  0  0  0  0  0  0  0  0  0  0  0
    7.0644   -6.4612   15.7375 N   0  0  0  0  0  0  0  0  0  0  0  0
    5.3549   -9.6322   18.3190 C   0  0  0  0  0  0  0  0  0  0  0  0
   10.3704   -4.9638   18.6510 C   0  0  0  0  0  0  0  0  0  0  0  0
    5.5935   -8.6419   17.4234 C   0  0  0  0  0  0  0  0  0  0  0  0
   13.0726   -4.6648   23.3394 O   0  0  0  0  0  0  0  0  0  0  0  0
    8.5955   -6.0705   17.3996 C   0  0  0  0  0  0  0  0  0  0  0  0
    4.6223   -8.3832   16.5030 C   0  0  0  0  0  0  0  0  0  0  0  0
   12.4690   -5.2624   19.9024 C   0  0  0  0  0  0  0  0  0  0  0  0
    3.2548   -9.9919   17.4189 C   0  0  0  0  0  0  0  0  0  0  0  0
   12.4767   -4.7393   22.1790 C   0  0  0  0  0  0  0  0  0  0  0  0
    7.8593   -5.3772   15.3569 N   0  0  0  0  0  0  0  0  0  0  0  0
    7.4412   -6.9038   16.9283 C   0  0  0  0  0  0  0  0  0  0  0  0
  1 21  4  0
  1 23  4  0
  2  5  1  0
  2 13  4  0
  2 16  4  0
  3  6  4  0
  3  7  4  0
  4 13  4  0
  4 19  4  0
  4 24  4  0
  6 23  4  0
  7 16  1  0
  7 21  4  0
  8 18  1  0
  9 20  4  0
  9 22  4  0
 10 17  1  0
 10 25  1  0
 11 16  4  0
 11 19  4  0
 12 15  4  0
 12 22  4  0
 14 24  4  0
 14 25  4  0
 15 17  4  0
 17 20  4  0
 18 23  1  0
 19 25  4  0
M  END
$$$$

 Created by Python create_sdf_string function

 25 28  0  0  0  0  0  0  0  0999 V2000
   13.1533   -5.2399   21.0682 C   0  0  0  0  0  0  0  0  0  0  0  0
   10.4729   -4.0295   17.6135 C   0  0  0  0  0  0  0  0  0  0  0  0
   10.4789   -4.3641   20.9564 C   0  0  0  0  0  0  0  0  0  0  0  0
    8.7421   -5.1412   16.3650 C   0  0  0  0  0  0  0  0  0  0  0  0
   11.4353   -2.9204   17.8044 C   0  0  0  0  0  0  0  0  0  0  0  0
   11.1529   -4.3028   22.1277 C   0  0  0  0  0  0  0  0  0  0  0  0
   11.1290   -4.8502   19.8052 C   0  0  0  0  0  0  0  0  0  0  0  0
   12.4329   -4.2159   24.4224 C   0  0  0  0  0  0  0  0  0  0  0  0
    3.4740   -9.0387   16.5022 C   0  0  0  0  0  0  0  0  0  0  0  0
    6.8384   -7.9290   17.5282 N   0  0  0  0  0  0  0  0  0  0  0  0
    9.4126   -5.9853   18.4899 C   0  0  0  0  0  0  0  0  0  0  0  0
    4.2064  -10.3242   18.3302 C   0  0  0  0  0  0  0  0  0  0  0  0
    9.6599   -4.1551   16.4796 N   0  0  0  0  0  0  0  0  0  0  0  0
    7.0644   -6.4612   15.7375 N   0  0  0  0  0  0  0  0  0  0  0  0
    5.3549   -9.6322   18.3190 C   0  0  0  0  0  0  0  0  0  0  0  0
   10.3704   -4.9638   18.6510 C   0  0  0  0  0  0  0  0  0  0  0  0
    5.5935   -8.6419   17.4234 C   0  0  0  0  0  0  0  0  0  0  0  0
   13.0726   -4.6648   23.3394 O   0  0  0  0  0  0  0  0  0  0  0  0
    8.5955   -6.0705   17.3996 C   0  0  0  0  0  0  0  0  0  0  0  0
    4.6223   -8.3832   16.5030 C   0  0  0  0  0  0  0  0  0  0  0  0
   12.4690   -5.2624   19.9024 C   0  0  0  0  0  0  0  0  0  0  0  0
    3.2548   -9.9919   17.4189 C   0  0  0  0  0  0  0  0  0  0  0  0
   12.4767   -4.7393   22.1790 C   0  0  0  0  0  0  0  0  0  0  0  0
    7.8593   -5.3772   15.3569 N   0  0  0  0  0  0  0  0  0  0  0  0
    7.4412   -6.9038   16.9283 C   0  0  0  0  0  0  0  0  0  0  0  0
  1 21  4  0
  1 23  4  0
  2  5  1  0
  2 13  4  0
  2 16  4  0
  3  6  4  0
  3  7  4  0
  4 13  4  0
  4 19  4  0
  4 24  4  0
  6 23  4  0
  7 16  1  0
  7 21  4  0
  8 18  1  0
  9 20  4  0
  9 22  4  0
 10 17  1  0
 10 25  1  0
 11 16  4  0
 11 19  4  0
 12 15  4  0
 12 22  4  0
 14 24  4  0
 14 25  4  0
 15 17  4  0
 17 20  4  0
 18 23  1  0
 19 25  4  0
M  END
$$$$

 Created by Python create_sdf_string function

 25 28  0  0  0  0  0  0  0  0999 V2000
   13.1533   -5.2399   21.0682 C   0  0  0  0  0  0  0  0  0  0  0  0
   10.4729   -4.0295   17.6135 C   0  0  0  0  0  0  0  0  0  0  0  0
   10.4789   -4.3641   20.9564 C   0  0  0  0  0  0  0  0  0  0  0  0
    8.7421   -5.1412   16.3650 C   0  0  0  0  0  0  0  0  0  0  0  0
   11.4353   -2.9204   17.8044 C   0  0  0  0  0  0  0  0  0  0  0  0
   11.1529   -4.3028   22.1277 C   0  0  0  0  0  0  0  0  0  0  0  0
   11.1290   -4.8502   19.8052 C   0  0  0  0  0  0  0  0  0  0  0  0
   12.4329   -4.2159   24.4224 C   0  0  0  0  0  0  0  0  0  0  0  0
    3.4740   -9.0387   16.5022 C   0  0  0  0  0  0  0  0  0  0  0  0
    6.8384   -7.9290   17.5282 N   0  0  0  0  0  0  0  0  0  0  0  0
    9.4126   -5.9853   18.4899 C   0  0  0  0  0  0  0  0  0  0  0  0
    4.2064  -10.3242   18.3302 C   0  0  0  0  0  0  0  0  0  0  0  0
    9.6599   -4.1551   16.4796 N   0  0  0  0  0  0  0  0  0  0  0  0
    7.0644   -6.4612   15.7375 N   0  0  0  0  0  0  0  0  0  0  0  0
    5.3549   -9.6322   18.3190 C   0  0  0  0  0  0  0  0  0  0  0  0
   10.3704   -4.9638   18.6510 C   0  0  0  0  0  0  0  0  0  0  0  0
    5.5935   -8.6419   17.4234 C   0  0  0  0  0  0  0  0  0  0  0  0
   13.0726   -4.6648   23.3394 O   0  0  0  0  0  0  0  0  0  0  0  0
    8.5955   -6.0705   17.3996 C   0  0  0  0  0  0  0  0  0  0  0  0
    4.6223   -8.3832   16.5030 C   0  0  0  0  0  0  0  0  0  0  0  0
   12.4690   -5.2624   19.9024 C   0  0  0  0  0  0  0  0  0  0  0  0
    3.2548   -9.9919   17.4189 C   0  0  0  0  0  0  0  0  0  0  0  0
   12.4767   -4.7393   22.1790 C   0  0  0  0  0  0  0  0  0  0  0  0
    7.8593   -5.3772   15.3569 N   0  0  0  0  0  0  0  0  0  0  0  0
    7.4412   -6.9038   16.9283 C   0  0  0  0  0  0  0  0  0  0  0  0
  1 21  4  0
  1 23  4  0
  2  5  1  0
  2 13  4  0
  2 16  4  0
  3  6  4  0
  3  7  4  0
  4 13  4  0
  4 19  4  0
  4 24  4  0
  6 23  4  0
  7 16  1  0
  7 21  4  0
  8 18  1  0
  9 20  4  0
  9 22  4  0
 10 17  1  0
 10 25  1  0
 11 16  4  0
 11 19  4  0
 12 15  4  0
 12 22  4  0
 14 24  4  0
 14 25  4  0
 15 17  4  0
 17 20  4  0
 18 23  1  0
 19 25  4  0
M  END
$$$$

 Created by Python create_sdf_string function

 25 28  0  0  0  0  0  0  0  0999 V2000
   13.1533   -5.2399   21.0682 C   0  0  0  0  0  0  0  0  0  0  0  0
   10.4729   -4.0295   17.6135 C   0  0  0  0  0  0  0  0  0  0  0  0
   10.4789   -4.3641   20.9564 C   0  0  0  0  0  0  0  0  0  0  0  0
    8.7421   -5.1412   16.3650 C   0  0  0  0  0  0  0  0  0  0  0  0
   11.4353   -2.9204   17.8044 C   0  0  0  0  0  0  0  0  0  0  0  0
   11.1529   -4.3028   22.1277 C   0  0  0  0  0  0  0  0  0  0  0  0
   11.1290   -4.8502   19.8052 C   0  0  0  0  0  0  0  0  0  0  0  0
   12.4329   -4.2159   24.4224 C   0  0  0  0  0  0  0  0  0  0  0  0
    3.4740   -9.0387   16.5022 C   0  0  0  0  0  0  0  0  0  0  0  0
    6.8384   -7.9290   17.5282 N   0  0  0  0  0  0  0  0  0  0  0  0
    9.4126   -5.9853   18.4899 C   0  0  0  0  0  0  0  0  0  0  0  0
    4.2064  -10.3242   18.3302 C   0  0  0  0  0  0  0  0  0  0  0  0
    9.6599   -4.1551   16.4796 N   0  0  0  0  0  0  0  0  0  0  0  0
    7.0644   -6.4612   15.7375 N   0  0  0  0  0  0  0  0  0  0  0  0
    5.3549   -9.6322   18.3190 C   0  0  0  0  0  0  0  0  0  0  0  0
   10.3704   -4.9638   18.6510 C   0  0  0  0  0  0  0  0  0  0  0  0
    5.5935   -8.6419   17.4234 C   0  0  0  0  0  0  0  0  0  0  0  0
   13.0726   -4.6648   23.3394 O   0  0  0  0  0  0  0  0  0  0  0  0
    8.5955   -6.0705   17.3996 C   0  0  0  0  0  0  0  0  0  0  0  0
    4.6223   -8.3832   16.5030 C   0  0  0  0  0  0  0  0  0  0  0  0
   12.4690   -5.2624   19.9024 C   0  0  0  0  0  0  0  0  0  0  0  0
    3.2548   -9.9919   17.4189 C   0  0  0  0  0  0  0  0  0  0  0  0
   12.4767   -4.7393   22.1790 C   0  0  0  0  0  0  0  0  0  0  0  0
    7.8593   -5.3772   15.3569 N   0  0  0  0  0  0  0  0  0  0  0  0
    7.4412   -6.9038   16.9283 C   0  0  0  0  0  0  0  0  0  0  0  0
  1 21  4  0
  1 23  4  0
  2  5  1  0
  2 13  4  0
  2 16  4  0
  3  6  4  0
  3  7  4  0
  4 13  4  0
  4 19  4  0
  4 24  4  0
  6 23  4  0
  7 16  1  0
  7 21  4  0
  8 18  1  0
  9 20  4  0
  9 22  4  0
 10 17  1  0
 10 25  1  0
 11 16  4  0
 11 19  4  0
 12 15  4  0
 12 22  4  0
 14 24  4  0
 14 25  4  0
 15 17  4  0
 17 20  4  0
 18 23  1  0
 19 25  4  0
M  END
$$$$

 Created by Python create_sdf_string function

 25 28  0  0  0  0  0  0  0  0999 V2000
   13.1533   -5.2399   21.0682 C   0  0  0  0  0  0  0  0  0  0  0  0
   10.4729   -4.0295   17.6135 C   0  0  0  0  0  0  0  0  0  0  0  0
   10.4789   -4.3641   20.9564 C   0  0  0  0  0  0  0  0  0  0  0  0
    8.7421   -5.1412   16.3650 C   0  0  0  0  0  0  0  0  0  0  0  0
   11.4353   -2.9204   17.8044 C   0  0  0  0  0  0  0  0  0  0  0  0
   11.1529   -4.3028   22.1277 C   0  0  0  0  0  0  0  0  0  0  0  0
   11.1290   -4.8502   19.8052 C   0  0  0  0  0  0  0  0  0  0  0  0
   12.4329   -4.2159   24.4224 C   0  0  0  0  0  0  0  0  0  0  0  0
    3.4740   -9.0387   16.5022 C   0  0  0  0  0  0  0  0  0  0  0  0
    6.8384   -7.9290   17.5282 N   0  0  0  0  0  0  0  0  0  0  0  0
    9.4126   -5.9853   18.4899 C   0  0  0  0  0  0  0  0  0  0  0  0
    4.2064  -10.3242   18.3302 C   0  0  0  0  0  0  0  0  0  0  0  0
    9.6599   -4.1551   16.4796 N   0  0  0  0  0  0  0  0  0  0  0  0
    7.0644   -6.4612   15.7375 N   0  0  0  0  0  0  0  0  0  0  0  0
    5.3549   -9.6322   18.3190 C   0  0  0  0  0  0  0  0  0  0  0  0
   10.3704   -4.9638   18.6510 C   0  0  0  0  0  0  0  0  0  0  0  0
    5.5935   -8.6419   17.4234 C   0  0  0  0  0  0  0  0  0  0  0  0
   13.0726   -4.6648   23.3394 O   0  0  0  0  0  0  0  0  0  0  0  0
    8.5955   -6.0705   17.3996 C   0  0  0  0  0  0  0  0  0  0  0  0
    4.6223   -8.3832   16.5030 C   0  0  0  0  0  0  0  0  0  0  0  0
   12.4690   -5.2624   19.9024 C   0  0  0  0  0  0  0  0  0  0  0  0
    3.2548   -9.9919   17.4189 C   0  0  0  0  0  0  0  0  0  0  0  0
   12.4767   -4.7393   22.1790 C   0  0  0  0  0  0  0  0  0  0  0  0
    7.8593   -5.3772   15.3569 N   0  0  0  0  0  0  0  0  0  0  0  0
    7.4412   -6.9038   16.9283 C   0  0  0  0  0  0  0  0  0  0  0  0
  1 21  4  0
  1 23  4  0
  2  5  1  0
  2 13  4  0
  2 16  4  0
  3  6  4  0
  3  7  4  0
  4 13  4  0
  4 19  4  0
  4 24  4  0
  6 23  4  0
  7 16  1  0
  7 21  4  0
  8 18  1  0
  9 20  4  0
  9 22  4  0
 10 17  1  0
 10 25  1  0
 11 16  4  0
 11 19  4  0
 12 15  4  0
 12 22  4  0
 14 24  4  0
 14 25  4  0
 15 17  4  0
 17 20  4  0
 18 23  1  0
 19 25  4  0
M  END
$$$$

 Created by Python create_sdf_string function

 25 28  0  0  0  0  0  0  0  0999 V2000
   13.1533   -5.2399   21.0682 C   0  0  0  0  0  0  0  0  0  0  0  0
   10.4729   -4.0295   17.6135 C   0  0  0  0  0  0  0  0  0  0  0  0
   10.4789   -4.3641   20.9564 C   0  0  0  0  0  0  0  0  0  0  0  0
    8.7421   -5.1412   16.3650 C   0  0  0  0  0  0  0  0  0  0  0  0
   11.4353   -2.9204   17.8044 C   0  0  0  0  0  0  0  0  0  0  0  0
   11.1529   -4.3028   22.1277 C   0  0  0  0  0  0  0  0  0  0  0  0
   11.1290   -4.8502   19.8052 C   0  0  0  0  0  0  0  0  0  0  0  0
   12.4329   -4.2159   24.4224 C   0  0  0  0  0  0  0  0  0  0  0  0
    3.4740   -9.0387   16.5022 C   0  0  0  0  0  0  0  0  0  0  0  0
    6.8384   -7.9290   17.5282 N   0  0  0  0  0  0  0  0  0  0  0  0
    9.4126   -5.9853   18.4899 C   0  0  0  0  0  0  0  0  0  0  0  0
    4.2064  -10.3242   18.3302 C   0  0  0  0  0  0  0  0  0  0  0  0
    9.6599   -4.1551   16.4796 N   0  0  0  0  0  0  0  0  0  0  0  0
    7.0644   -6.4612   15.7375 N   0  0  0  0  0  0  0  0  0  0  0  0
    5.3549   -9.6322   18.3190 C   0  0  0  0  0  0  0  0  0  0  0  0
   10.3704   -4.9638   18.6510 C   0  0  0  0  0  0  0  0  0  0  0  0
    5.5935   -8.6419   17.4234 C   0  0  0  0  0  0  0  0  0  0  0  0
   13.0726   -4.6648   23.3394 O   0  0  0  0  0  0  0  0  0  0  0  0
    8.5955   -6.0705   17.3996 C   0  0  0  0  0  0  0  0  0  0  0  0
    4.6223   -8.3832   16.5030 C   0  0  0  0  0  0  0  0  0  0  0  0
   12.4690   -5.2624   19.9024 C   0  0  0  0  0  0  0  0  0  0  0  0
    3.2548   -9.9919   17.4189 C   0  0  0  0  0  0  0  0  0  0  0  0
   12.4767   -4.7393   22.1790 C   0  0  0  0  0  0  0  0  0  0  0  0
    7.8593   -5.3772   15.3569 N   0  0  0  0  0  0  0  0  0  0  0  0
    7.4412   -6.9038   16.9283 C   0  0  0  0  0  0  0  0  0  0  0  0
  1 21  4  0
  1 23  4  0
  2  5  1  0
  2 13  4  0
  2 16  4  0
  3  6  4  0
  3  7  4  0
  4 13  4  0
  4 19  4  0
  4 24  4  0
  6 23  4  0
  7 16  1  0
  7 21  4  0
  8 18  1  0
  9 20  4  0
  9 22  4  0
 10 17  1  0
 10 25  1  0
 11 16  4  0
 11 19  4  0
 12 15  4  0
 12 22  4  0
 14 24  4  0
 14 25  4  0
 15 17  4  0
 17 20  4  0
 18 23  1  0
 19 25  4  0
M  END
$$$$

 Created by Python create_sdf_string function

 25 28  0  0  0  0  0  0  0  0999 V2000
   13.1533   -5.2399   21.0682 C   0  0  0  0  0  0  0  0  0  0  0  0
   10.4729   -4.0295   17.6135 C   0  0  0  0  0  0  0  0  0  0  0  0
   10.4789   -4.3641   20.9564 C   0  0  0  0  0  0  0  0  0  0  0  0
    8.7421   -5.1412   16.3650 C   0  0  0  0  0  0  0  0  0  0  0  0
   11.4353   -2.9204   17.8044 C   0  0  0  0  0  0  0  0  0  0  0  0
   11.1529   -4.3028   22.1277 C   0  0  0  0  0  0  0  0  0  0  0  0
   11.1290   -4.8502   19.8052 C   0  0  0  0  0  0  0  0  0  0  0  0
   12.4329   -4.2159   24.4224 C   0  0  0  0  0  0  0  0  0  0  0  0
    3.4740   -9.0387   16.5022 C   0  0  0  0  0  0  0  0  0  0  0  0
    6.8384   -7.9290   17.5282 N   0  0  0  0  0  0  0  0  0  0  0  0
    9.4126   -5.9853   18.4899 C   0  0  0  0  0  0  0  0  0  0  0  0
    4.2064  -10.3242   18.3302 C   0  0  0  0  0  0  0  0  0  0  0  0
    9.6599   -4.1551   16.4796 N   0  0  0  0  0  0  0  0  0  0  0  0
    7.0644   -6.4612   15.7375 N   0  0  0  0  0  0  0  0  0  0  0  0
    5.3549   -9.6322   18.3190 C   0  0  0  0  0  0  0  0  0  0  0  0
   10.3704   -4.9638   18.6510 C   0  0  0  0  0  0  0  0  0  0  0  0
    5.5935   -8.6419   17.4234 C   0  0  0  0  0  0  0  0  0  0  0  0
   13.0726   -4.6648   23.3394 O   0  0  0  0  0  0  0  0  0  0  0  0
    8.5955   -6.0705   17.3996 C   0  0  0  0  0  0  0  0  0  0  0  0
    4.6223   -8.3832   16.5030 C   0  0  0  0  0  0  0  0  0  0  0  0
   12.4690   -5.2624   19.9024 C   0  0  0  0  0  0  0  0  0  0  0  0
    3.2548   -9.9919   17.4189 C   0  0  0  0  0  0  0  0  0  0  0  0
   12.4767   -4.7393   22.1790 C   0  0  0  0  0  0  0  0  0  0  0  0
    7.8593   -5.3772   15.3569 N   0  0  0  0  0  0  0  0  0  0  0  0
    7.4412   -6.9038   16.9283 C   0  0  0  0  0  0  0  0  0  0  0  0
  1 21  4  0
  1 23  4  0
  2  5  1  0
  2 13  4  0
  2 16  4  0
  3  6  4  0
  3  7  4  0
  4 13  4  0
  4 19  4  0
  4 24  4  0
  6 23  4  0
  7 16  1  0
  7 21  4  0
  8 18  1  0
  9 20  4  0
  9 22  4  0
 10 17  1  0
 10 25  1  0
 11 16  4  0
 11 19  4  0
 12 15  4  0
 12 22  4  0
 14 24  4  0
 14 25  4  0
 15 17  4  0
 17 20  4  0
 18 23  1  0
 19 25  4  0
M  END
$$$$

 Created by Python create_sdf_string function

 25 28  0  0  0  0  0  0  0  0999 V2000
   13.1533   -5.2399   21.0682 C   0  0  0  0  0  0  0  0  0  0  0  0
   10.4729   -4.0295   17.6135 C   0  0  0  0  0  0  0  0  0  0  0  0
   10.4789   -4.3641   20.9564 C   0  0  0  0  0  0  0  0  0  0  0  0
    8.7421   -5.1412   16.3650 C   0  0  0  0  0  0  0  0  0  0  0  0
   11.4353   -2.9204   17.8044 C   0  0  0  0  0  0  0  0  0  0  0  0
   11.1529   -4.3028   22.1277 C   0  0  0  0  0  0  0  0  0  0  0  0
   11.1290   -4.8502   19.8052 C   0  0  0  0  0  0  0  0  0  0  0  0
   12.4329   -4.2159   24.4224 C   0  0  0  0  0  0  0  0  0  0  0  0
    3.4740   -9.0387   16.5022 C   0  0  0  0  0  0  0  0  0  0  0  0
    6.8384   -7.9290   17.5282 N   0  0  0  0  0  0  0  0  0  0  0  0
    9.4126   -5.9853   18.4899 C   0  0  0  0  0  0  0  0  0  0  0  0
    4.2064  -10.3242   18.3302 C   0  0  0  0  0  0  0  0  0  0  0  0
    9.6599   -4.1551   16.4796 N   0  0  0  0  0  0  0  0  0  0  0  0
    7.0644   -6.4612   15.7375 N   0  0  0  0  0  0  0  0  0  0  0  0
    5.3549   -9.6322   18.3190 C   0  0  0  0  0  0  0  0  0  0  0  0
   10.3704   -4.9638   18.6510 C   0  0  0  0  0  0  0  0  0  0  0  0
    5.5935   -8.6419   17.4234 C   0  0  0  0  0  0  0  0  0  0  0  0
   13.0726   -4.6648   23.3394 O   0  0  0  0  0  0  0  0  0  0  0  0
    8.5955   -6.0705   17.3996 C   0  0  0  0  0  0  0  0  0  0  0  0
    4.6223   -8.3832   16.5030 C   0  0  0  0  0  0  0  0  0  0  0  0
   12.4690   -5.2624   19.9024 C   0  0  0  0  0  0  0  0  0  0  0  0
    3.2548   -9.9919   17.4189 C   0  0  0  0  0  0  0  0  0  0  0  0
   12.4767   -4.7393   22.1790 C   0  0  0  0  0  0  0  0  0  0  0  0
    7.8593   -5.3772   15.3569 N   0  0  0  0  0  0  0  0  0  0  0  0
    7.4412   -6.9038   16.9283 C   0  0  0  0  0  0  0  0  0  0  0  0
  1 21  4  0
  1 23  4  0
  2  5  1  0
  2 13  4  0
  2 16  4  0
  3  6  4  0
  3  7  4  0
  4 13  4  0
  4 19  4  0
  4 24  4  0
  6 23  4  0
  7 16  1  0
  7 21  4  0
  8 18  1  0
  9 20  4  0
  9 22  4  0
 10 17  1  0
 10 25  1  0
 11 16  4  0
 11 19  4  0
 12 15  4  0
 12 22  4  0
 14 24  4  0
 14 25  4  0
 15 17  4  0
 17 20  4  0
 18 23  1  0
 19 25  4  0
M  END
$$$$

 Created by Python create_sdf_string function

 25 28  0  0  0  0  0  0  0  0999 V2000
   13.1533   -5.2399   21.0682 C   0  0  0  0  0  0  0  0  0  0  0  0
   10.4729   -4.0295   17.6135 C   0  0  0  0  0  0  0  0  0  0  0  0
   10.4789   -4.3641   20.9564 C   0  0  0  0  0  0  0  0  0  0  0  0
    8.7421   -5.1412   16.3650 C   0  0  0  0  0  0  0  0  0  0  0  0
   11.4353   -2.9204   17.8044 C   0  0  0  0  0  0  0  0  0  0  0  0
   11.1529   -4.3028   22.1277 C   0  0  0  0  0  0  0  0  0  0  0  0
   11.1290   -4.8502   19.8052 C   0  0  0  0  0  0  0  0  0  0  0  0
   12.4329   -4.2159   24.4224 C   0  0  0  0  0  0  0  0  0  0  0  0
    3.4740   -9.0387   16.5022 C   0  0  0  0  0  0  0  0  0  0  0  0
    6.8384   -7.9290   17.5282 N   0  0  0  0  0  0  0  0  0  0  0  0
    9.4126   -5.9853   18.4899 C   0  0  0  0  0  0  0  0  0  0  0  0
    4.2064  -10.3242   18.3302 C   0  0  0  0  0  0  0  0  0  0  0  0
    9.6599   -4.1551   16.4796 N   0  0  0  0  0  0  0  0  0  0  0  0
    7.0644   -6.4612   15.7375 N   0  0  0  0  0  0  0  0  0  0  0  0
    5.3549   -9.6322   18.3190 C   0  0  0  0  0  0  0  0  0  0  0  0
   10.3704   -4.9638   18.6510 C   0  0  0  0  0  0  0  0  0  0  0  0
    5.5935   -8.6419   17.4234 C   0  0  0  0  0  0  0  0  0  0  0  0
   13.0726   -4.6648   23.3394 O   0  0  0  0  0  0  0  0  0  0  0  0
    8.5955   -6.0705   17.3996 C   0  0  0  0  0  0  0  0  0  0  0  0
    4.6223   -8.3832   16.5030 C   0  0  0  0  0  0  0  0  0  0  0  0
   12.4690   -5.2624   19.9024 C   0  0  0  0  0  0  0  0  0  0  0  0
    3.2548   -9.9919   17.4189 C   0  0  0  0  0  0  0  0  0  0  0  0
   12.4767   -4.7393   22.1790 C   0  0  0  0  0  0  0  0  0  0  0  0
    7.8593   -5.3772   15.3569 N   0  0  0  0  0  0  0  0  0  0  0  0
    7.4412   -6.9038   16.9283 C   0  0  0  0  0  0  0  0  0  0  0  0
  1 21  4  0
  1 23  4  0
  2  5  1  0
  2 13  4  0
  2 16  4  0
  3  6  4  0
  3  7  4  0
  4 13  4  0
  4 19  4  0
  4 24  4  0
  6 23  4  0
  7 16  1  0
  7 21  4  0
  8 18  1  0
  9 20  4  0
  9 22  4  0
 10 17  1  0
 10 25  1  0
 11 16  4  0
 11 19  4  0
 12 15  4  0
 12 22  4  0
 14 24  4  0
 14 25  4  0
 15 17  4  0
 17 20  4  0
 18 23  1  0
 19 25  4  0
M  END
$$$$

 Created by Python create_sdf_string function

 25 28  0  0  0  0  0  0  0  0999 V2000
   13.1533   -5.2399   21.0682 C   0  0  0  0  0  0  0  0  0  0  0  0
   10.4729   -4.0295   17.6135 C   0  0  0  0  0  0  0  0  0  0  0  0
   10.4789   -4.3641   20.9564 C   0  0  0  0  0  0  0  0  0  0  0  0
    8.7421   -5.1412   16.3650 C   0  0  0  0  0  0  0  0  0  0  0  0
   11.4353   -2.9204   17.8044 C   0  0  0  0  0  0  0  0  0  0  0  0
   11.1529   -4.3028   22.1277 C   0  0  0  0  0  0  0  0  0  0  0  0
   11.1290   -4.8502   19.8052 C   0  0  0  0  0  0  0  0  0  0  0  0
   12.4329   -4.2159   24.4224 C   0  0  0  0  0  0  0  0  0  0  0  0
    3.4740   -9.0387   16.5022 C   0  0  0  0  0  0  0  0  0  0  0  0
    6.8384   -7.9290   17.5282 N   0  0  0  0  0  0  0  0  0  0  0  0
    9.4126   -5.9853   18.4899 C   0  0  0  0  0  0  0  0  0  0  0  0
    4.2064  -10.3242   18.3302 C   0  0  0  0  0  0  0  0  0  0  0  0
    9.6599   -4.1551   16.4796 N   0  0  0  0  0  0  0  0  0  0  0  0
    7.0644   -6.4612   15.7375 N   0  0  0  0  0  0  0  0  0  0  0  0
    5.3549   -9.6322   18.3190 C   0  0  0  0  0  0  0  0  0  0  0  0
   10.3704   -4.9638   18.6510 C   0  0  0  0  0  0  0  0  0  0  0  0
    5.5935   -8.6419   17.4234 C   0  0  0  0  0  0  0  0  0  0  0  0
   13.0726   -4.6648   23.3394 O   0  0  0  0  0  0  0  0  0  0  0  0
    8.5955   -6.0705   17.3996 C   0  0  0  0  0  0  0  0  0  0  0  0
    4.6223   -8.3832   16.5030 C   0  0  0  0  0  0  0  0  0  0  0  0
   12.4690   -5.2624   19.9024 C   0  0  0  0  0  0  0  0  0  0  0  0
    3.2548   -9.9919   17.4189 C   0  0  0  0  0  0  0  0  0  0  0  0
   12.4767   -4.7393   22.1790 C   0  0  0  0  0  0  0  0  0  0  0  0
    7.8593   -5.3772   15.3569 N   0  0  0  0  0  0  0  0  0  0  0  0
    7.4412   -6.9038   16.9283 C   0  0  0  0  0  0  0  0  0  0  0  0
  1 21  4  0
  1 23  4  0
  2  5  1  0
  2 13  4  0
  2 16  4  0
  3  6  4  0
  3  7  4  0
  4 13  4  0
  4 19  4  0
  4 24  4  0
  6 23  4  0
  7 16  1  0
  7 21  4  0
  8 18  1  0
  9 20  4  0
  9 22  4  0
 10 17  1  0
 10 25  1  0
 11 16  4  0
 11 19  4  0
 12 15  4  0
 12 22  4  0
 14 24  4  0
 14 25  4  0
 15 17  4  0
 17 20  4  0
 18 23  1  0
 19 25  4  0
M  END
$$$$

 Created by Python create_sdf_string function

 25 28  0  0  0  0  0  0  0  0999 V2000
   13.1533   -5.2399   21.0682 C   0  0  0  0  0  0  0  0  0  0  0  0
   10.4729   -4.0295   17.6135 C   0  0  0  0  0  0  0  0  0  0  0  0
   10.4789   -4.3641   20.9564 C   0  0  0  0  0  0  0  0  0  0  0  0
    8.7421   -5.1412   16.3650 C   0  0  0  0  0  0  0  0  0  0  0  0
   11.4353   -2.9204   17.8044 C   0  0  0  0  0  0  0  0  0  0  0  0
   11.1529   -4.3028   22.1277 C   0  0  0  0  0  0  0  0  0  0  0  0
   11.1290   -4.8502   19.8052 C   0  0  0  0  0  0  0  0  0  0  0  0
   12.4329   -4.2159   24.4224 C   0  0  0  0  0  0  0  0  0  0  0  0
    3.4740   -9.0387   16.5022 C   0  0  0  0  0  0  0  0  0  0  0  0
    6.8384   -7.9290   17.5282 N   0  0  0  0  0  0  0  0  0  0  0  0
    9.4126   -5.9853   18.4899 C   0  0  0  0  0  0  0  0  0  0  0  0
    4.2064  -10.3242   18.3302 C   0  0  0  0  0  0  0  0  0  0  0  0
    9.6599   -4.1551   16.4796 N   0  0  0  0  0  0  0  0  0  0  0  0
    7.0644   -6.4612   15.7375 N   0  0  0  0  0  0  0  0  0  0  0  0
    5.3549   -9.6322   18.3190 C   0  0  0  0  0  0  0  0  0  0  0  0
   10.3704   -4.9638   18.6510 C   0  0  0  0  0  0  0  0  0  0  0  0
    5.5935   -8.6419   17.4234 C   0  0  0  0  0  0  0  0  0  0  0  0
   13.0726   -4.6648   23.3394 O   0  0  0  0  0  0  0  0  0  0  0  0
    8.5955   -6.0705   17.3996 C   0  0  0  0  0  0  0  0  0  0  0  0
    4.6223   -8.3832   16.5030 C   0  0  0  0  0  0  0  0  0  0  0  0
   12.4690   -5.2624   19.9024 C   0  0  0  0  0  0  0  0  0  0  0  0
    3.2548   -9.9919   17.4189 C   0  0  0  0  0  0  0  0  0  0  0  0
   12.4767   -4.7393   22.1790 C   0  0  0  0  0  0  0  0  0  0  0  0
    7.8593   -5.3772   15.3569 N   0  0  0  0  0  0  0  0  0  0  0  0
    7.4412   -6.9038   16.9283 C   0  0  0  0  0  0  0  0  0  0  0  0
  1 21  4  0
  1 23  4  0
  2  5  1  0
  2 13  4  0
  2 16  4  0
  3  6  4  0
  3  7  4  0
  4 13  4  0
  4 19  4  0
  4 24  4  0
  6 23  4  0
  7 16  1  0
  7 21  4  0
  8 18  1  0
  9 20  4  0
  9 22  4  0
 10 17  1  0
 10 25  1  0
 11 16  4  0
 11 19  4  0
 12 15  4  0
 12 22  4  0
 14 24  4  0
 14 25  4  0
 15 17  4  0
 17 20  4  0
 18 23  1  0
 19 25  4  0
M  END
$$$$

 Created by Python create_sdf_string function

 25 28  0  0  0  0  0  0  0  0999 V2000
   13.1533   -5.2399   21.0682 C   0  0  0  0  0  0  0  0  0  0  0  0
   10.4729   -4.0295   17.6135 C   0  0  0  0  0  0  0  0  0  0  0  0
   10.4789   -4.3641   20.9564 C   0  0  0  0  0  0  0  0  0  0  0  0
    8.7421   -5.1412   16.3650 C   0  0  0  0  0  0  0  0  0  0  0  0
   11.4353   -2.9204   17.8044 C   0  0  0  0  0  0  0  0  0  0  0  0
   11.1529   -4.3028   22.1277 C   0  0  0  0  0  0  0  0  0  0  0  0
   11.1290   -4.8502   19.8052 C   0  0  0  0  0  0  0  0  0  0  0  0
   12.4329   -4.2159   24.4224 C   0  0  0  0  0  0  0  0  0  0  0  0
    3.4740   -9.0387   16.5022 C   0  0  0  0  0  0  0  0  0  0  0  0
    6.8384   -7.9290   17.5282 N   0  0  0  0  0  0  0  0  0  0  0  0
    9.4126   -5.9853   18.4899 C   0  0  0  0  0  0  0  0  0  0  0  0
    4.2064  -10.3242   18.3302 C   0  0  0  0  0  0  0  0  0  0  0  0
    9.6599   -4.1551   16.4796 N   0  0  0  0  0  0  0  0  0  0  0  0
    7.0644   -6.4612   15.7375 N   0  0  0  0  0  0  0  0  0  0  0  0
    5.3549   -9.6322   18.3190 C   0  0  0  0  0  0  0  0  0  0  0  0
   10.3704   -4.9638   18.6510 C   0  0  0  0  0  0  0  0  0  0  0  0
    5.5935   -8.6419   17.4234 C   0  0  0  0  0  0  0  0  0  0  0  0
   13.0726   -4.6648   23.3394 O   0  0  0  0  0  0  0  0  0  0  0  0
    8.5955   -6.0705   17.3996 C   0  0  0  0  0  0  0  0  0  0  0  0
    4.6223   -8.3832   16.5030 C   0  0  0  0  0  0  0  0  0  0  0  0
   12.4690   -5.2624   19.9024 C   0  0  0  0  0  0  0  0  0  0  0  0
    3.2548   -9.9919   17.4189 C   0  0  0  0  0  0  0  0  0  0  0  0
   12.4767   -4.7393   22.1790 C   0  0  0  0  0  0  0  0  0  0  0  0
    7.8593   -5.3772   15.3569 N   0  0  0  0  0  0  0  0  0  0  0  0
    7.4412   -6.9038   16.9283 C   0  0  0  0  0  0  0  0  0  0  0  0
  1 21  4  0
  1 23  4  0
  2  5  1  0
  2 13  4  0
  2 16  4  0
  3  6  4  0
  3  7  4  0
  4 13  4  0
  4 19  4  0
  4 24  4  0
  6 23  4  0
  7 16  1  0
  7 21  4  0
  8 18  1  0
  9 20  4  0
  9 22  4  0
 10 17  1  0
 10 25  1  0
 11 16  4  0
 11 19  4  0
 12 15  4  0
 12 22  4  0
 14 24  4  0
 14 25  4  0
 15 17  4  0
 17 20  4  0
 18 23  1  0
 19 25  4  0
M  END
$$$$

 Created by Python create_sdf_string function

 25 28  0  0  0  0  0  0  0  0999 V2000
   13.1533   -5.2399   21.0682 C   0  0  0  0  0  0  0  0  0  0  0  0
   10.4729   -4.0295   17.6135 C   0  0  0  0  0  0  0  0  0  0  0  0
   10.4789   -4.3641   20.9564 C   0  0  0  0  0  0  0  0  0  0  0  0
    8.7421   -5.1412   16.3650 C   0  0  0  0  0  0  0  0  0  0  0  0
   11.4353   -2.9204   17.8044 C   0  0  0  0  0  0  0  0  0  0  0  0
   11.1529   -4.3028   22.1277 C   0  0  0  0  0  0  0  0  0  0  0  0
   11.1290   -4.8502   19.8052 C   0  0  0  0  0  0  0  0  0  0  0  0
   12.4329   -4.2159   24.4224 C   0  0  0  0  0  0  0  0  0  0  0  0
    3.4740   -9.0387   16.5022 C   0  0  0  0  0  0  0  0  0  0  0  0
    6.8384   -7.9290   17.5282 N   0  0  0  0  0  0  0  0  0  0  0  0
    9.4126   -5.9853   18.4899 C   0  0  0  0  0  0  0  0  0  0  0  0
    4.2064  -10.3242   18.3302 C   0  0  0  0  0  0  0  0  0  0  0  0
    9.6599   -4.1551   16.4796 N   0  0  0  0  0  0  0  0  0  0  0  0
    7.0644   -6.4612   15.7375 N   0  0  0  0  0  0  0  0  0  0  0  0
    5.3549   -9.6322   18.3190 C   0  0  0  0  0  0  0  0  0  0  0  0
   10.3704   -4.9638   18.6510 C   0  0  0  0  0  0  0  0  0  0  0  0
    5.5935   -8.6419   17.4234 C   0  0  0  0  0  0  0  0  0  0  0  0
   13.0726   -4.6648   23.3394 O   0  0  0  0  0  0  0  0  0  0  0  0
    8.5955   -6.0705   17.3996 C   0  0  0  0  0  0  0  0  0  0  0  0
    4.6223   -8.3832   16.5030 C   0  0  0  0  0  0  0  0  0  0  0  0
   12.4690   -5.2624   19.9024 C   0  0  0  0  0  0  0  0  0  0  0  0
    3.2548   -9.9919   17.4189 C   0  0  0  0  0  0  0  0  0  0  0  0
   12.4767   -4.7393   22.1790 C   0  0  0  0  0  0  0  0  0  0  0  0
    7.8593   -5.3772   15.3569 N   0  0  0  0  0  0  0  0  0  0  0  0
    7.4412   -6.9038   16.9283 C   0  0  0  0  0  0  0  0  0  0  0  0
  1 21  4  0
  1 23  4  0
  2  5  1  0
  2 13  4  0
  2 16  4  0
  3  6  4  0
  3  7  4  0
  4 13  4  0
  4 19  4  0
  4 24  4  0
  6 23  4  0
  7 16  1  0
  7 21  4  0
  8 18  1  0
  9 20  4  0
  9 22  4  0
 10 17  1  0
 10 25  1  0
 11 16  4  0
 11 19  4  0
 12 15  4  0
 12 22  4  0
 14 24  4  0
 14 25  4  0
 15 17  4  0
 17 20  4  0
 18 23  1  0
 19 25  4  0
M  END
$$$$

 Created by Python create_sdf_string function

 25 28  0  0  0  0  0  0  0  0999 V2000
   13.1533   -5.2399   21.0682 C   0  0  0  0  0  0  0  0  0  0  0  0
   10.4729   -4.0295   17.6135 C   0  0  0  0  0  0  0  0  0  0  0  0
   10.4789   -4.3641   20.9564 C   0  0  0  0  0  0  0  0  0  0  0  0
    8.7421   -5.1412   16.3650 C   0  0  0  0  0  0  0  0  0  0  0  0
   11.4353   -2.9204   17.8044 C   0  0  0  0  0  0  0  0  0  0  0  0
   11.1529   -4.3028   22.1277 C   0  0  0  0  0  0  0  0  0  0  0  0
   11.1290   -4.8502   19.8052 C   0  0  0  0  0  0  0  0  0  0  0  0
   12.4329   -4.2159   24.4224 C   0  0  0  0  0  0  0  0  0  0  0  0
    3.4740   -9.0387   16.5022 C   0  0  0  0  0  0  0  0  0  0  0  0
    6.8384   -7.9290   17.5282 N   0  0  0  0  0  0  0  0  0  0  0  0
    9.4126   -5.9853   18.4899 C   0  0  0  0  0  0  0  0  0  0  0  0
    4.2064  -10.3242   18.3302 C   0  0  0  0  0  0  0  0  0  0  0  0
    9.6599   -4.1551   16.4796 N   0  0  0  0  0  0  0  0  0  0  0  0
    7.0644   -6.4612   15.7375 N   0  0  0  0  0  0  0  0  0  0  0  0
    5.3549   -9.6322   18.3190 C   0  0  0  0  0  0  0  0  0  0  0  0
   10.3704   -4.9638   18.6510 C   0  0  0  0  0  0  0  0  0  0  0  0
    5.5935   -8.6419   17.4234 C   0  0  0  0  0  0  0  0  0  0  0  0
   13.0726   -4.6648   23.3394 O   0  0  0  0  0  0  0  0  0  0  0  0
    8.5955   -6.0705   17.3996 C   0  0  0  0  0  0  0  0  0  0  0  0
    4.6223   -8.3832   16.5030 C   0  0  0  0  0  0  0  0  0  0  0  0
   12.4690   -5.2624   19.9024 C   0  0  0  0  0  0  0  0  0  0  0  0
    3.2548   -9.9919   17.4189 C   0  0  0  0  0  0  0  0  0  0  0  0
   12.4767   -4.7393   22.1790 C   0  0  0  0  0  0  0  0  0  0  0  0
    7.8593   -5.3772   15.3569 N   0  0  0  0  0  0  0  0  0  0  0  0
    7.4412   -6.9038   16.9283 C   0  0  0  0  0  0  0  0  0  0  0  0
  1 21  4  0
  1 23  4  0
  2  5  1  0
  2 13  4  0
  2 16  4  0
  3  6  4  0
  3  7  4  0
  4 13  4  0
  4 19  4  0
  4 24  4  0
  6 23  4  0
  7 16  1  0
  7 21  4  0
  8 18  1  0
  9 20  4  0
  9 22  4  0
 10 17  1  0
 10 25  1  0
 11 16  4  0
 11 19  4  0
 12 15  4  0
 12 22  4  0
 14 24  4  0
 14 25  4  0
 15 17  4  0
 17 20  4  0
 18 23  1  0
 19 25  4  0
M  END
$$$$

 Created by Python create_sdf_string function

 25 28  0  0  0  0  0  0  0  0999 V2000
   13.1533   -5.2399   21.0682 C   0  0  0  0  0  0  0  0  0  0  0  0
   10.4729   -4.0295   17.6135 C   0  0  0  0  0  0  0  0  0  0  0  0
   10.4789   -4.3641   20.9564 C   0  0  0  0  0  0  0  0  0  0  0  0
    8.7421   -5.1412   16.3650 C   0  0  0  0  0  0  0  0  0  0  0  0
   11.4353   -2.9204   17.8044 C   0  0  0  0  0  0  0  0  0  0  0  0
   11.1529   -4.3028   22.1277 C   0  0  0  0  0  0  0  0  0  0  0  0
   11.1290   -4.8502   19.8052 C   0  0  0  0  0  0  0  0  0  0  0  0
   12.4329   -4.2159   24.4224 C   0  0  0  0  0  0  0  0  0  0  0  0
    3.4740   -9.0387   16.5022 C   0  0  0  0  0  0  0  0  0  0  0  0
    6.8384   -7.9290   17.5282 N   0  0  0  0  0  0  0  0  0  0  0  0
    9.4126   -5.9853   18.4899 C   0  0  0  0  0  0  0  0  0  0  0  0
    4.2064  -10.3242   18.3302 C   0  0  0  0  0  0  0  0  0  0  0  0
    9.6599   -4.1551   16.4796 N   0  0  0  0  0  0  0  0  0  0  0  0
    7.0644   -6.4612   15.7375 N   0  0  0  0  0  0  0  0  0  0  0  0
    5.3549   -9.6322   18.3190 C   0  0  0  0  0  0  0  0  0  0  0  0
   10.3704   -4.9638   18.6510 C   0  0  0  0  0  0  0  0  0  0  0  0
    5.5935   -8.6419   17.4234 C   0  0  0  0  0  0  0  0  0  0  0  0
   13.0726   -4.6648   23.3394 O   0  0  0  0  0  0  0  0  0  0  0  0
    8.5955   -6.0705   17.3996 C   0  0  0  0  0  0  0  0  0  0  0  0
    4.6223   -8.3832   16.5030 C   0  0  0  0  0  0  0  0  0  0  0  0
   12.4690   -5.2624   19.9024 C   0  0  0  0  0  0  0  0  0  0  0  0
    3.2548   -9.9919   17.4189 C   0  0  0  0  0  0  0  0  0  0  0  0
   12.4767   -4.7393   22.1790 C   0  0  0  0  0  0  0  0  0  0  0  0
    7.8593   -5.3772   15.3569 N   0  0  0  0  0  0  0  0  0  0  0  0
    7.4412   -6.9038   16.9283 C   0  0  0  0  0  0  0  0  0  0  0  0
  1 21  4  0
  1 23  4  0
  2  5  1  0
  2 13  4  0
  2 16  4  0
  3  6  4  0
  3  7  4  0
  4 13  4  0
  4 19  4  0
  4 24  4  0
  6 23  4  0
  7 16  1  0
  7 21  4  0
  8 18  1  0
  9 20  4  0
  9 22  4  0
 10 17  1  0
 10 25  1  0
 11 16  4  0
 11 19  4  0
 12 15  4  0
 12 22  4  0
 14 24  4  0
 14 25  4  0
 15 17  4  0
 17 20  4  0
 18 23  1  0
 19 25  4  0
M  END
$$$$

 Created by Python create_sdf_string function

 25 28  0  0  0  0  0  0  0  0999 V2000
   13.1533   -5.2399   21.0682 C   0  0  0  0  0  0  0  0  0  0  0  0
   10.4729   -4.0295   17.6135 C   0  0  0  0  0  0  0  0  0  0  0  0
   10.4789   -4.3641   20.9564 C   0  0  0  0  0  0  0  0  0  0  0  0
    8.7421   -5.1412   16.3650 C   0  0  0  0  0  0  0  0  0  0  0  0
   11.4353   -2.9204   17.8044 C   0  0  0  0  0  0  0  0  0  0  0  0
   11.1529   -4.3028   22.1277 C   0  0  0  0  0  0  0  0  0  0  0  0
   11.1290   -4.8502   19.8052 C   0  0  0  0  0  0  0  0  0  0  0  0
   12.4329   -4.2159   24.4224 C   0  0  0  0  0  0  0  0  0  0  0  0
    3.4740   -9.0387   16.5022 C   0  0  0  0  0  0  0  0  0  0  0  0
    6.8384   -7.9290   17.5282 N   0  0  0  0  0  0  0  0  0  0  0  0
    9.4126   -5.9853   18.4899 C   0  0  0  0  0  0  0  0  0  0  0  0
    4.2064  -10.3242   18.3302 C   0  0  0  0  0  0  0  0  0  0  0  0
    9.6599   -4.1551   16.4796 N   0  0  0  0  0  0  0  0  0  0  0  0
    7.0644   -6.4612   15.7375 N   0  0  0  0  0  0  0  0  0  0  0  0
    5.3549   -9.6322   18.3190 C   0  0  0  0  0  0  0  0  0  0  0  0
   10.3704   -4.9638   18.6510 C   0  0  0  0  0  0  0  0  0  0  0  0
    5.5935   -8.6419   17.4234 C   0  0  0  0  0  0  0  0  0  0  0  0
   13.0726   -4.6648   23.3394 O   0  0  0  0  0  0  0  0  0  0  0  0
    8.5955   -6.0705   17.3996 C   0  0  0  0  0  0  0  0  0  0  0  0
    4.6223   -8.3832   16.5030 C   0  0  0  0  0  0  0  0  0  0  0  0
   12.4690   -5.2624   19.9024 C   0  0  0  0  0  0  0  0  0  0  0  0
    3.2548   -9.9919   17.4189 C   0  0  0  0  0  0  0  0  0  0  0  0
   12.4767   -4.7393   22.1790 C   0  0  0  0  0  0  0  0  0  0  0  0
    7.8593   -5.3772   15.3569 N   0  0  0  0  0  0  0  0  0  0  0  0
    7.4412   -6.9038   16.9283 C   0  0  0  0  0  0  0  0  0  0  0  0
  1 21  4  0
  1 23  4  0
  2  5  1  0
  2 13  4  0
  2 16  4  0
  3  6  4  0
  3  7  4  0
  4 13  4  0
  4 19  4  0
  4 24  4  0
  6 23  4  0
  7 16  1  0
  7 21  4  0
  8 18  1  0
  9 20  4  0
  9 22  4  0
 10 17  1  0
 10 25  1  0
 11 16  4  0
 11 19  4  0
 12 15  4  0
 12 22  4  0
 14 24  4  0
 14 25  4  0
 15 17  4  0
 17 20  4  0
 18 23  1  0
 19 25  4  0
M  END
$$$$

 Created by Python create_sdf_string function

 25 28  0  0  0  0  0  0  0  0999 V2000
   13.1533   -5.2399   21.0682 C   0  0  0  0  0  0  0  0  0  0  0  0
   10.4729   -4.0295   17.6135 C   0  0  0  0  0  0  0  0  0  0  0  0
   10.4789   -4.3641   20.9564 C   0  0  0  0  0  0  0  0  0  0  0  0
    8.7421   -5.1412   16.3650 C   0  0  0  0  0  0  0  0  0  0  0  0
   11.4353   -2.9204   17.8044 C   0  0  0  0  0  0  0  0  0  0  0  0
   11.1529   -4.3028   22.1277 C   0  0  0  0  0  0  0  0  0  0  0  0
   11.1290   -4.8502   19.8052 C   0  0  0  0  0  0  0  0  0  0  0  0
   12.4329   -4.2159   24.4224 C   0  0  0  0  0  0  0  0  0  0  0  0
    3.4740   -9.0387   16.5022 C   0  0  0  0  0  0  0  0  0  0  0  0
    6.8384   -7.9290   17.5282 N   0  0  0  0  0  0  0  0  0  0  0  0
    9.4126   -5.9853   18.4899 C   0  0  0  0  0  0  0  0  0  0  0  0
    4.2064  -10.3242   18.3302 C   0  0  0  0  0  0  0  0  0  0  0  0
    9.6599   -4.1551   16.4796 N   0  0  0  0  0  0  0  0  0  0  0  0
    7.0644   -6.4612   15.7375 N   0  0  0  0  0  0  0  0  0  0  0  0
    5.3549   -9.6322   18.3190 C   0  0  0  0  0  0  0  0  0  0  0  0
   10.3704   -4.9638   18.6510 C   0  0  0  0  0  0  0  0  0  0  0  0
    5.5935   -8.6419   17.4234 C   0  0  0  0  0  0  0  0  0  0  0  0
   13.0726   -4.6648   23.3394 O   0  0  0  0  0  0  0  0  0  0  0  0
    8.5955   -6.0705   17.3996 C   0  0  0  0  0  0  0  0  0  0  0  0
    4.6223   -8.3832   16.5030 C   0  0  0  0  0  0  0  0  0  0  0  0
   12.4690   -5.2624   19.9024 C   0  0  0  0  0  0  0  0  0  0  0  0
    3.2548   -9.9919   17.4189 C   0  0  0  0  0  0  0  0  0  0  0  0
   12.4767   -4.7393   22.1790 C   0  0  0  0  0  0  0  0  0  0  0  0
    7.8593   -5.3772   15.3569 N   0  0  0  0  0  0  0  0  0  0  0  0
    7.4412   -6.9038   16.9283 C   0  0  0  0  0  0  0  0  0  0  0  0
  1 21  4  0
  1 23  4  0
  2  5  1  0
  2 13  4  0
  2 16  4  0
  3  6  4  0
  3  7  4  0
  4 13  4  0
  4 19  4  0
  4 24  4  0
  6 23  4  0
  7 16  1  0
  7 21  4  0
  8 18  1  0
  9 20  4  0
  9 22  4  0
 10 17  1  0
 10 25  1  0
 11 16  4  0
 11 19  4  0
 12 15  4  0
 12 22  4  0
 14 24  4  0
 14 25  4  0
 15 17  4  0
 17 20  4  0
 18 23  1  0
 19 25  4  0
M  END
$$$$

 Created by Python create_sdf_string function

 25 28  0  0  0  0  0  0  0  0999 V2000
   13.1533   -5.2399   21.0682 C   0  0  0  0  0  0  0  0  0  0  0  0
   10.4729   -4.0295   17.6135 C   0  0  0  0  0  0  0  0  0  0  0  0
   10.4789   -4.3641   20.9564 C   0  0  0  0  0  0  0  0  0  0  0  0
    8.7421   -5.1412   16.3650 C   0  0  0  0  0  0  0  0  0  0  0  0
   11.4353   -2.9204   17.8044 C   0  0  0  0  0  0  0  0  0  0  0  0
   11.1529   -4.3028   22.1277 C   0  0  0  0  0  0  0  0  0  0  0  0
   11.1290   -4.8502   19.8052 C   0  0  0  0  0  0  0  0  0  0  0  0
   12.4329   -4.2159   24.4224 C   0  0  0  0  0  0  0  0  0  0  0  0
    3.4740   -9.0387   16.5022 C   0  0  0  0  0  0  0  0  0  0  0  0
    6.8384   -7.9290   17.5282 N   0  0  0  0  0  0  0  0  0  0  0  0
    9.4126   -5.9853   18.4899 C   0  0  0  0  0  0  0  0  0  0  0  0
    4.2064  -10.3242   18.3302 C   0  0  0  0  0  0  0  0  0  0  0  0
    9.6599   -4.1551   16.4796 N   0  0  0  0  0  0  0  0  0  0  0  0
    7.0644   -6.4612   15.7375 N   0  0  0  0  0  0  0  0  0  0  0  0
    5.3549   -9.6322   18.3190 C   0  0  0  0  0  0  0  0  0  0  0  0
   10.3704   -4.9638   18.6510 C   0  0  0  0  0  0  0  0  0  0  0  0
    5.5935   -8.6419   17.4234 C   0  0  0  0  0  0  0  0  0  0  0  0
   13.0726   -4.6648   23.3394 O   0  0  0  0  0  0  0  0  0  0  0  0
    8.5955   -6.0705   17.3996 C   0  0  0  0  0  0  0  0  0  0  0  0
    4.6223   -8.3832   16.5030 C   0  0  0  0  0  0  0  0  0  0  0  0
   12.4690   -5.2624   19.9024 C   0  0  0  0  0  0  0  0  0  0  0  0
    3.2548   -9.9919   17.4189 C   0  0  0  0  0  0  0  0  0  0  0  0
   12.4767   -4.7393   22.1790 C   0  0  0  0  0  0  0  0  0  0  0  0
    7.8593   -5.3772   15.3569 N   0  0  0  0  0  0  0  0  0  0  0  0
    7.4412   -6.9038   16.9283 C   0  0  0  0  0  0  0  0  0  0  0  0
  1 21  4  0
  1 23  4  0
  2  5  1  0
  2 13  4  0
  2 16  4  0
  3  6  4  0
  3  7  4  0
  4 13  4  0
  4 19  4  0
  4 24  4  0
  6 23  4  0
  7 16  1  0
  7 21  4  0
  8 18  1  0
  9 20  4  0
  9 22  4  0
 10 17  1  0
 10 25  1  0
 11 16  4  0
 11 19  4  0
 12 15  4  0
 12 22  4  0
 14 24  4  0
 14 25  4  0
 15 17  4  0
 17 20  4  0
 18 23  1  0
 19 25  4  0
M  END
$$$$

 Created by Python create_sdf_string function

 25 28  0  0  0  0  0  0  0  0999 V2000
   13.1533   -5.2399   21.0682 C   0  0  0  0  0  0  0  0  0  0  0  0
   10.4729   -4.0295   17.6135 C   0  0  0  0  0  0  0  0  0  0  0  0
   10.4789   -4.3641   20.9564 C   0  0  0  0  0  0  0  0  0  0  0  0
    8.7421   -5.1412   16.3650 C   0  0  0  0  0  0  0  0  0  0  0  0
   11.4353   -2.9204   17.8044 C   0  0  0  0  0  0  0  0  0  0  0  0
   11.1529   -4.3028   22.1277 C   0  0  0  0  0  0  0  0  0  0  0  0
   11.1290   -4.8502   19.8052 C   0  0  0  0  0  0  0  0  0  0  0  0
   12.4329   -4.2159   24.4224 C   0  0  0  0  0  0  0  0  0  0  0  0
    3.4740   -9.0387   16.5022 C   0  0  0  0  0  0  0  0  0  0  0  0
    6.8384   -7.9290   17.5282 N   0  0  0  0  0  0  0  0  0  0  0  0
    9.4126   -5.9853   18.4899 C   0  0  0  0  0  0  0  0  0  0  0  0
    4.2064  -10.3242   18.3302 C   0  0  0  0  0  0  0  0  0  0  0  0
    9.6599   -4.1551   16.4796 N   0  0  0  0  0  0  0  0  0  0  0  0
    7.0644   -6.4612   15.7375 N   0  0  0  0  0  0  0  0  0  0  0  0
    5.3549   -9.6322   18.3190 C   0  0  0  0  0  0  0  0  0  0  0  0
   10.3704   -4.9638   18.6510 C   0  0  0  0  0  0  0  0  0  0  0  0
    5.5935   -8.6419   17.4234 C   0  0  0  0  0  0  0  0  0  0  0  0
   13.0726   -4.6648   23.3394 O   0  0  0  0  0  0  0  0  0  0  0  0
    8.5955   -6.0705   17.3996 C   0  0  0  0  0  0  0  0  0  0  0  0
    4.6223   -8.3832   16.5030 C   0  0  0  0  0  0  0  0  0  0  0  0
   12.4690   -5.2624   19.9024 C   0  0  0  0  0  0  0  0  0  0  0  0
    3.2548   -9.9919   17.4189 C   0  0  0  0  0  0  0  0  0  0  0  0
   12.4767   -4.7393   22.1790 C   0  0  0  0  0  0  0  0  0  0  0  0
    7.8593   -5.3772   15.3569 N   0  0  0  0  0  0  0  0  0  0  0  0
    7.4412   -6.9038   16.9283 C   0  0  0  0  0  0  0  0  0  0  0  0
  1 21  4  0
  1 23  4  0
  2  5  1  0
  2 13  4  0
  2 16  4  0
  3  6  4  0
  3  7  4  0
  4 13  4  0
  4 19  4  0
  4 24  4  0
  6 23  4  0
  7 16  1  0
  7 21  4  0
  8 18  1  0
  9 20  4  0
  9 22  4  0
 10 17  1  0
 10 25  1  0
 11 16  4  0
 11 19  4  0
 12 15  4  0
 12 22  4  0
 14 24  4  0
 14 25  4  0
 15 17  4  0
 17 20  4  0
 18 23  1  0
 19 25  4  0
M  END
$$$$

 Created by Python create_sdf_string function

 25 28  0  0  0  0  0  0  0  0999 V2000
   13.1533   -5.2399   21.0682 C   0  0  0  0  0  0  0  0  0  0  0  0
   10.4729   -4.0295   17.6135 C   0  0  0  0  0  0  0  0  0  0  0  0
   10.4789   -4.3641   20.9564 C   0  0  0  0  0  0  0  0  0  0  0  0
    8.7421   -5.1412   16.3650 C   0  0  0  0  0  0  0  0  0  0  0  0
   11.4353   -2.9204   17.8044 C   0  0  0  0  0  0  0  0  0  0  0  0
   11.1529   -4.3028   22.1277 C   0  0  0  0  0  0  0  0  0  0  0  0
   11.1290   -4.8502   19.8052 C   0  0  0  0  0  0  0  0  0  0  0  0
   12.4329   -4.2159   24.4224 C   0  0  0  0  0  0  0  0  0  0  0  0
    3.4740   -9.0387   16.5022 C   0  0  0  0  0  0  0  0  0  0  0  0
    6.8384   -7.9290   17.5282 N   0  0  0  0  0  0  0  0  0  0  0  0
    9.4126   -5.9853   18.4899 C   0  0  0  0  0  0  0  0  0  0  0  0
    4.2064  -10.3242   18.3302 C   0  0  0  0  0  0  0  0  0  0  0  0
    9.6599   -4.1551   16.4796 N   0  0  0  0  0  0  0  0  0  0  0  0
    7.0644   -6.4612   15.7375 N   0  0  0  0  0  0  0  0  0  0  0  0
    5.3549   -9.6322   18.3190 C   0  0  0  0  0  0  0  0  0  0  0  0
   10.3704   -4.9638   18.6510 C   0  0  0  0  0  0  0  0  0  0  0  0
    5.5935   -8.6419   17.4234 C   0  0  0  0  0  0  0  0  0  0  0  0
   13.0726   -4.6648   23.3394 O   0  0  0  0  0  0  0  0  0  0  0  0
    8.5955   -6.0705   17.3996 C   0  0  0  0  0  0  0  0  0  0  0  0
    4.6223   -8.3832   16.5030 C   0  0  0  0  0  0  0  0  0  0  0  0
   12.4690   -5.2624   19.9024 C   0  0  0  0  0  0  0  0  0  0  0  0
    3.2548   -9.9919   17.4189 C   0  0  0  0  0  0  0  0  0  0  0  0
   12.4767   -4.7393   22.1790 C   0  0  0  0  0  0  0  0  0  0  0  0
    7.8593   -5.3772   15.3569 N   0  0  0  0  0  0  0  0  0  0  0  0
    7.4412   -6.9038   16.9283 C   0  0  0  0  0  0  0  0  0  0  0  0
  1 21  4  0
  1 23  4  0
  2  5  1  0
  2 13  4  0
  2 16  4  0
  3  6  4  0
  3  7  4  0
  4 13  4  0
  4 19  4  0
  4 24  4  0
  6 23  4  0
  7 16  1  0
  7 21  4  0
  8 18  1  0
  9 20  4  0
  9 22  4  0
 10 17  1  0
 10 25  1  0
 11 16  4  0
 11 19  4  0
 12 15  4  0
 12 22  4  0
 14 24  4  0
 14 25  4  0
 15 17  4  0
 17 20  4  0
 18 23  1  0
 19 25  4  0
M  END
$$$$

 Created by Python create_sdf_string function

 25 28  0  0  0  0  0  0  0  0999 V2000
   13.1533   -5.2399   21.0682 C   0  0  0  0  0  0  0  0  0  0  0  0
   10.4729   -4.0295   17.6135 C   0  0  0  0  0  0  0  0  0  0  0  0
   10.4789   -4.3641   20.9564 C   0  0  0  0  0  0  0  0  0  0  0  0
    8.7421   -5.1412   16.3650 C   0  0  0  0  0  0  0  0  0  0  0  0
   11.4353   -2.9204   17.8044 C   0  0  0  0  0  0  0  0  0  0  0  0
   11.1529   -4.3028   22.1277 C   0  0  0  0  0  0  0  0  0  0  0  0
   11.1290   -4.8502   19.8052 C   0  0  0  0  0  0  0  0  0  0  0  0
   12.4329   -4.2159   24.4224 C   0  0  0  0  0  0  0  0  0  0  0  0
    3.4740   -9.0387   16.5022 C   0  0  0  0  0  0  0  0  0  0  0  0
    6.8384   -7.9290   17.5282 N   0  0  0  0  0  0  0  0  0  0  0  0
    9.4126   -5.9853   18.4899 C   0  0  0  0  0  0  0  0  0  0  0  0
    4.2064  -10.3242   18.3302 C   0  0  0  0  0  0  0  0  0  0  0  0
    9.6599   -4.1551   16.4796 N   0  0  0  0  0  0  0  0  0  0  0  0
    7.0644   -6.4612   15.7375 N   0  0  0  0  0  0  0  0  0  0  0  0
    5.3549   -9.6322   18.3190 C   0  0  0  0  0  0  0  0  0  0  0  0
   10.3704   -4.9638   18.6510 C   0  0  0  0  0  0  0  0  0  0  0  0
    5.5935   -8.6419   17.4234 C   0  0  0  0  0  0  0  0  0  0  0  0
   13.0726   -4.6648   23.3394 O   0  0  0  0  0  0  0  0  0  0  0  0
    8.5955   -6.0705   17.3996 C   0  0  0  0  0  0  0  0  0  0  0  0
    4.6223   -8.3832   16.5030 C   0  0  0  0  0  0  0  0  0  0  0  0
   12.4690   -5.2624   19.9024 C   0  0  0  0  0  0  0  0  0  0  0  0
    3.2548   -9.9919   17.4189 C   0  0  0  0  0  0  0  0  0  0  0  0
   12.4767   -4.7393   22.1790 C   0  0  0  0  0  0  0  0  0  0  0  0
    7.8593   -5.3772   15.3569 N   0  0  0  0  0  0  0  0  0  0  0  0
    7.4412   -6.9038   16.9283 C   0  0  0  0  0  0  0  0  0  0  0  0
  1 21  4  0
  1 23  4  0
  2  5  1  0
  2 13  4  0
  2 16  4  0
  3  6  4  0
  3  7  4  0
  4 13  4  0
  4 19  4  0
  4 24  4  0
  6 23  4  0
  7 16  1  0
  7 21  4  0
  8 18  1  0
  9 20  4  0
  9 22  4  0
 10 17  1  0
 10 25  1  0
 11 16  4  0
 11 19  4  0
 12 15  4  0
 12 22  4  0
 14 24  4  0
 14 25  4  0
 15 17  4  0
 17 20  4  0
 18 23  1  0
 19 25  4  0
M  END
$$$$

 Created by Python create_sdf_string function

 25 28  0  0  0  0  0  0  0  0999 V2000
   13.1533   -5.2399   21.0682 C   0  0  0  0  0  0  0  0  0  0  0  0
   10.4729   -4.0295   17.6135 C   0  0  0  0  0  0  0  0  0  0  0  0
   10.4789   -4.3641   20.9564 C   0  0  0  0  0  0  0  0  0  0  0  0
    8.7421   -5.1412   16.3650 C   0  0  0  0  0  0  0  0  0  0  0  0
   11.4353   -2.9204   17.8044 C   0  0  0  0  0  0  0  0  0  0  0  0
   11.1529   -4.3028   22.1277 C   0  0  0  0  0  0  0  0  0  0  0  0
   11.1290   -4.8502   19.8052 C   0  0  0  0  0  0  0  0  0  0  0  0
   12.4329   -4.2159   24.4224 C   0  0  0  0  0  0  0  0  0  0  0  0
    3.4740   -9.0387   16.5022 C   0  0  0  0  0  0  0  0  0  0  0  0
    6.8384   -7.9290   17.5282 N   0  0  0  0  0  0  0  0  0  0  0  0
    9.4126   -5.9853   18.4899 C   0  0  0  0  0  0  0  0  0  0  0  0
    4.2064  -10.3242   18.3302 C   0  0  0  0  0  0  0  0  0  0  0  0
    9.6599   -4.1551   16.4796 N   0  0  0  0  0  0  0  0  0  0  0  0
    7.0644   -6.4612   15.7375 N   0  0  0  0  0  0  0  0  0  0  0  0
    5.3549   -9.6322   18.3190 C   0  0  0  0  0  0  0  0  0  0  0  0
   10.3704   -4.9638   18.6510 C   0  0  0  0  0  0  0  0  0  0  0  0
    5.5935   -8.6419   17.4234 C   0  0  0  0  0  0  0  0  0  0  0  0
   13.0726   -4.6648   23.3394 O   0  0  0  0  0  0  0  0  0  0  0  0
    8.5955   -6.0705   17.3996 C   0  0  0  0  0  0  0  0  0  0  0  0
    4.6223   -8.3832   16.5030 C   0  0  0  0  0  0  0  0  0  0  0  0
   12.4690   -5.2624   19.9024 C   0  0  0  0  0  0  0  0  0  0  0  0
    3.2548   -9.9919   17.4189 C   0  0  0  0  0  0  0  0  0  0  0  0
   12.4767   -4.7393   22.1790 C   0  0  0  0  0  0  0  0  0  0  0  0
    7.8593   -5.3772   15.3569 N   0  0  0  0  0  0  0  0  0  0  0  0
    7.4412   -6.9038   16.9283 C   0  0  0  0  0  0  0  0  0  0  0  0
  1 21  4  0
  1 23  4  0
  2  5  1  0
  2 13  4  0
  2 16  4  0
  3  6  4  0
  3  7  4  0
  4 13  4  0
  4 19  4  0
  4 24  4  0
  6 23  4  0
  7 16  1  0
  7 21  4  0
  8 18  1  0
  9 20  4  0
  9 22  4  0
 10 17  1  0
 10 25  1  0
 11 16  4  0
 11 19  4  0
 12 15  4  0
 12 22  4  0
 14 24  4  0
 14 25  4  0
 15 17  4  0
 17 20  4  0
 18 23  1  0
 19 25  4  0
M  END
$$$$

 Created by Python create_sdf_string function

 25 28  0  0  0  0  0  0  0  0999 V2000
   13.1533   -5.2399   21.0682 C   0  0  0  0  0  0  0  0  0  0  0  0
   10.4729   -4.0295   17.6135 C   0  0  0  0  0  0  0  0  0  0  0  0
   10.4789   -4.3641   20.9564 C   0  0  0  0  0  0  0  0  0  0  0  0
    8.7421   -5.1412   16.3650 C   0  0  0  0  0  0  0  0  0  0  0  0
   11.4353   -2.9204   17.8044 C   0  0  0  0  0  0  0  0  0  0  0  0
   11.1529   -4.3028   22.1277 C   0  0  0  0  0  0  0  0  0  0  0  0
   11.1290   -4.8502   19.8052 C   0  0  0  0  0  0  0  0  0  0  0  0
   12.4329   -4.2159   24.4224 C   0  0  0  0  0  0  0  0  0  0  0  0
    3.4740   -9.0387   16.5022 C   0  0  0  0  0  0  0  0  0  0  0  0
    6.8384   -7.9290   17.5282 N   0  0  0  0  0  0  0  0  0  0  0  0
    9.4126   -5.9853   18.4899 C   0  0  0  0  0  0  0  0  0  0  0  0
    4.2064  -10.3242   18.3302 C   0  0  0  0  0  0  0  0  0  0  0  0
    9.6599   -4.1551   16.4796 N   0  0  0  0  0  0  0  0  0  0  0  0
    7.0644   -6.4612   15.7375 N   0  0  0  0  0  0  0  0  0  0  0  0
    5.3549   -9.6322   18.3190 C   0  0  0  0  0  0  0  0  0  0  0  0
   10.3704   -4.9638   18.6510 C   0  0  0  0  0  0  0  0  0  0  0  0
    5.5935   -8.6419   17.4234 C   0  0  0  0  0  0  0  0  0  0  0  0
   13.0726   -4.6648   23.3394 O   0  0  0  0  0  0  0  0  0  0  0  0
    8.5955   -6.0705   17.3996 C   0  0  0  0  0  0  0  0  0  0  0  0
    4.6223   -8.3832   16.5030 C   0  0  0  0  0  0  0  0  0  0  0  0
   12.4690   -5.2624   19.9024 C   0  0  0  0  0  0  0  0  0  0  0  0
    3.2548   -9.9919   17.4189 C   0  0  0  0  0  0  0  0  0  0  0  0
   12.4767   -4.7393   22.1790 C   0  0  0  0  0  0  0  0  0  0  0  0
    7.8593   -5.3772   15.3569 N   0  0  0  0  0  0  0  0  0  0  0  0
    7.4412   -6.9038   16.9283 C   0  0  0  0  0  0  0  0  0  0  0  0
  1 21  4  0
  1 23  4  0
  2  5  1  0
  2 13  4  0
  2 16  4  0
  3  6  4  0
  3  7  4  0
  4 13  4  0
  4 19  4  0
  4 24  4  0
  6 23  4  0
  7 16  1  0
  7 21  4  0
  8 18  1  0
  9 20  4  0
  9 22  4  0
 10 17  1  0
 10 25  1  0
 11 16  4  0
 11 19  4  0
 12 15  4  0
 12 22  4  0
 14 24  4  0
 14 25  4  0
 15 17  4  0
 17 20  4  0
 18 23  1  0
 19 25  4  0
M  END
$$$$

 Created by Python create_sdf_string function

 25 28  0  0  0  0  0  0  0  0999 V2000
   13.1533   -5.2399   21.0682 C   0  0  0  0  0  0  0  0  0  0  0  0
   10.4729   -4.0295   17.6135 C   0  0  0  0  0  0  0  0  0  0  0  0
   10.4789   -4.3641   20.9564 C   0  0  0  0  0  0  0  0  0  0  0  0
    8.7421   -5.1412   16.3650 C   0  0  0  0  0  0  0  0  0  0  0  0
   11.4353   -2.9204   17.8044 C   0  0  0  0  0  0  0  0  0  0  0  0
   11.1529   -4.3028   22.1277 C   0  0  0  0  0  0  0  0  0  0  0  0
   11.1290   -4.8502   19.8052 C   0  0  0  0  0  0  0  0  0  0  0  0
   12.4329   -4.2159   24.4224 C   0  0  0  0  0  0  0  0  0  0  0  0
    3.4740   -9.0387   16.5022 C   0  0  0  0  0  0  0  0  0  0  0  0
    6.8384   -7.9290   17.5282 N   0  0  0  0  0  0  0  0  0  0  0  0
    9.4126   -5.9853   18.4899 C   0  0  0  0  0  0  0  0  0  0  0  0
    4.2064  -10.3242   18.3302 C   0  0  0  0  0  0  0  0  0  0  0  0
    9.6599   -4.1551   16.4796 N   0  0  0  0  0  0  0  0  0  0  0  0
    7.0644   -6.4612   15.7375 N   0  0  0  0  0  0  0  0  0  0  0  0
    5.3549   -9.6322   18.3190 C   0  0  0  0  0  0  0  0  0  0  0  0
   10.3704   -4.9638   18.6510 C   0  0  0  0  0  0  0  0  0  0  0  0
    5.5935   -8.6419   17.4234 C   0  0  0  0  0  0  0  0  0  0  0  0
   13.0726   -4.6648   23.3394 O   0  0  0  0  0  0  0  0  0  0  0  0
    8.5955   -6.0705   17.3996 C   0  0  0  0  0  0  0  0  0  0  0  0
    4.6223   -8.3832   16.5030 C   0  0  0  0  0  0  0  0  0  0  0  0
   12.4690   -5.2624   19.9024 C   0  0  0  0  0  0  0  0  0  0  0  0
    3.2548   -9.9919   17.4189 C   0  0  0  0  0  0  0  0  0  0  0  0
   12.4767   -4.7393   22.1790 C   0  0  0  0  0  0  0  0  0  0  0  0
    7.8593   -5.3772   15.3569 N   0  0  0  0  0  0  0  0  0  0  0  0
    7.4412   -6.9038   16.9283 C   0  0  0  0  0  0  0  0  0  0  0  0
  1 21  4  0
  1 23  4  0
  2  5  1  0
  2 13  4  0
  2 16  4  0
  3  6  4  0
  3  7  4  0
  4 13  4  0
  4 19  4  0
  4 24  4  0
  6 23  4  0
  7 16  1  0
  7 21  4  0
  8 18  1  0
  9 20  4  0
  9 22  4  0
 10 17  1  0
 10 25  1  0
 11 16  4  0
 11 19  4  0
 12 15  4  0
 12 22  4  0
 14 24  4  0
 14 25  4  0
 15 17  4  0
 17 20  4  0
 18 23  1  0
 19 25  4  0
M  END
$$$$

 Created by Python create_sdf_string function

 25 28  0  0  0  0  0  0  0  0999 V2000
   13.1533   -5.2399   21.0682 C   0  0  0  0  0  0  0  0  0  0  0  0
   10.4729   -4.0295   17.6135 C   0  0  0  0  0  0  0  0  0  0  0  0
   10.4789   -4.3641   20.9564 C   0  0  0  0  0  0  0  0  0  0  0  0
    8.7421   -5.1412   16.3650 C   0  0  0  0  0  0  0  0  0  0  0  0
   11.4353   -2.9204   17.8044 C   0  0  0  0  0  0  0  0  0  0  0  0
   11.1529   -4.3028   22.1277 C   0  0  0  0  0  0  0  0  0  0  0  0
   11.1290   -4.8502   19.8052 C   0  0  0  0  0  0  0  0  0  0  0  0
   12.4329   -4.2159   24.4224 C   0  0  0  0  0  0  0  0  0  0  0  0
    3.4740   -9.0387   16.5022 C   0  0  0  0  0  0  0  0  0  0  0  0
    6.8384   -7.9290   17.5282 N   0  0  0  0  0  0  0  0  0  0  0  0
    9.4126   -5.9853   18.4899 C   0  0  0  0  0  0  0  0  0  0  0  0
    4.2064  -10.3242   18.3302 C   0  0  0  0  0  0  0  0  0  0  0  0
    9.6599   -4.1551   16.4796 N   0  0  0  0  0  0  0  0  0  0  0  0
    7.0644   -6.4612   15.7375 N   0  0  0  0  0  0  0  0  0  0  0  0
    5.3549   -9.6322   18.3190 C   0  0  0  0  0  0  0  0  0  0  0  0
   10.3704   -4.9638   18.6510 C   0  0  0  0  0  0  0  0  0  0  0  0
    5.5935   -8.6419   17.4234 C   0  0  0  0  0  0  0  0  0  0  0  0
   13.0726   -4.6648   23.3394 O   0  0  0  0  0  0  0  0  0  0  0  0
    8.5955   -6.0705   17.3996 C   0  0  0  0  0  0  0  0  0  0  0  0
    4.6223   -8.3832   16.5030 C   0  0  0  0  0  0  0  0  0  0  0  0
   12.4690   -5.2624   19.9024 C   0  0  0  0  0  0  0  0  0  0  0  0
    3.2548   -9.9919   17.4189 C   0  0  0  0  0  0  0  0  0  0  0  0
   12.4767   -4.7393   22.1790 C   0  0  0  0  0  0  0  0  0  0  0  0
    7.8593   -5.3772   15.3569 N   0  0  0  0  0  0  0  0  0  0  0  0
    7.4412   -6.9038   16.9283 C   0  0  0  0  0  0  0  0  0  0  0  0
  1 21  4  0
  1 23  4  0
  2  5  1  0
  2 13  4  0
  2 16  4  0
  3  6  4  0
  3  7  4  0
  4 13  4  0
  4 19  4  0
  4 24  4  0
  6 23  4  0
  7 16  1  0
  7 21  4  0
  8 18  1  0
  9 20  4  0
  9 22  4  0
 10 17  1  0
 10 25  1  0
 11 16  4  0
 11 19  4  0
 12 15  4  0
 12 22  4  0
 14 24  4  0
 14 25  4  0
 15 17  4  0
 17 20  4  0
 18 23  1  0
 19 25  4  0
M  END
$$$$

 Created by Python create_sdf_string function

 25 28  0  0  0  0  0  0  0  0999 V2000
   13.1533   -5.2399   21.0682 C   0  0  0  0  0  0  0  0  0  0  0  0
   10.4729   -4.0295   17.6135 C   0  0  0  0  0  0  0  0  0  0  0  0
   10.4789   -4.3641   20.9564 C   0  0  0  0  0  0  0  0  0  0  0  0
    8.7421   -5.1412   16.3650 C   0  0  0  0  0  0  0  0  0  0  0  0
   11.4353   -2.9204   17.8044 C   0  0  0  0  0  0  0  0  0  0  0  0
   11.1529   -4.3028   22.1277 C   0  0  0  0  0  0  0  0  0  0  0  0
   11.1290   -4.8502   19.8052 C   0  0  0  0  0  0  0  0  0  0  0  0
   12.4329   -4.2159   24.4224 C   0  0  0  0  0  0  0  0  0  0  0  0
    3.4740   -9.0387   16.5022 C   0  0  0  0  0  0  0  0  0  0  0  0
    6.8384   -7.9290   17.5282 N   0  0  0  0  0  0  0  0  0  0  0  0
    9.4126   -5.9853   18.4899 C   0  0  0  0  0  0  0  0  0  0  0  0
    4.2064  -10.3242   18.3302 C   0  0  0  0  0  0  0  0  0  0  0  0
    9.6599   -4.1551   16.4796 N   0  0  0  0  0  0  0  0  0  0  0  0
    7.0644   -6.4612   15.7375 N   0  0  0  0  0  0  0  0  0  0  0  0
    5.3549   -9.6322   18.3190 C   0  0  0  0  0  0  0  0  0  0  0  0
   10.3704   -4.9638   18.6510 C   0  0  0  0  0  0  0  0  0  0  0  0
    5.5935   -8.6419   17.4234 C   0  0  0  0  0  0  0  0  0  0  0  0
   13.0726   -4.6648   23.3394 O   0  0  0  0  0  0  0  0  0  0  0  0
    8.5955   -6.0705   17.3996 C   0  0  0  0  0  0  0  0  0  0  0  0
    4.6223   -8.3832   16.5030 C   0  0  0  0  0  0  0  0  0  0  0  0
   12.4690   -5.2624   19.9024 C   0  0  0  0  0  0  0  0  0  0  0  0
    3.2548   -9.9919   17.4189 C   0  0  0  0  0  0  0  0  0  0  0  0
   12.4767   -4.7393   22.1790 C   0  0  0  0  0  0  0  0  0  0  0  0
    7.8593   -5.3772   15.3569 N   0  0  0  0  0  0  0  0  0  0  0  0
    7.4412   -6.9038   16.9283 C   0  0  0  0  0  0  0  0  0  0  0  0
  1 21  4  0
  1 23  4  0
  2  5  1  0
  2 13  4  0
  2 16  4  0
  3  6  4  0
  3  7  4  0
  4 13  4  0
  4 19  4  0
  4 24  4  0
  6 23  4  0
  7 16  1  0
  7 21  4  0
  8 18  1  0
  9 20  4  0
  9 22  4  0
 10 17  1  0
 10 25  1  0
 11 16  4  0
 11 19  4  0
 12 15  4  0
 12 22  4  0
 14 24  4  0
 14 25  4  0
 15 17  4  0
 17 20  4  0
 18 23  1  0
 19 25  4  0
M  END
$$$$

 Created by Python create_sdf_string function

 25 28  0  0  0  0  0  0  0  0999 V2000
   13.1533   -5.2399   21.0682 C   0  0  0  0  0  0  0  0  0  0  0  0
   10.4729   -4.0295   17.6135 C   0  0  0  0  0  0  0  0  0  0  0  0
   10.4789   -4.3641   20.9564 C   0  0  0  0  0  0  0  0  0  0  0  0
    8.7421   -5.1412   16.3650 C   0  0  0  0  0  0  0  0  0  0  0  0
   11.4353   -2.9204   17.8044 C   0  0  0  0  0  0  0  0  0  0  0  0
   11.1529   -4.3028   22.1277 C   0  0  0  0  0  0  0  0  0  0  0  0
   11.1290   -4.8502   19.8052 C   0  0  0  0  0  0  0  0  0  0  0  0
   12.4329   -4.2159   24.4224 C   0  0  0  0  0  0  0  0  0  0  0  0
    3.4740   -9.0387   16.5022 C   0  0  0  0  0  0  0  0  0  0  0  0
    6.8384   -7.9290   17.5282 N   0  0  0  0  0  0  0  0  0  0  0  0
    9.4126   -5.9853   18.4899 C   0  0  0  0  0  0  0  0  0  0  0  0
    4.2064  -10.3242   18.3302 C   0  0  0  0  0  0  0  0  0  0  0  0
    9.6599   -4.1551   16.4796 N   0  0  0  0  0  0  0  0  0  0  0  0
    7.0644   -6.4612   15.7375 N   0  0  0  0  0  0  0  0  0  0  0  0
    5.3549   -9.6322   18.3190 C   0  0  0  0  0  0  0  0  0  0  0  0
   10.3704   -4.9638   18.6510 C   0  0  0  0  0  0  0  0  0  0  0  0
    5.5935   -8.6419   17.4234 C   0  0  0  0  0  0  0  0  0  0  0  0
   13.0726   -4.6648   23.3394 O   0  0  0  0  0  0  0  0  0  0  0  0
    8.5955   -6.0705   17.3996 C   0  0  0  0  0  0  0  0  0  0  0  0
    4.6223   -8.3832   16.5030 C   0  0  0  0  0  0  0  0  0  0  0  0
   12.4690   -5.2624   19.9024 C   0  0  0  0  0  0  0  0  0  0  0  0
    3.2548   -9.9919   17.4189 C   0  0  0  0  0  0  0  0  0  0  0  0
   12.4767   -4.7393   22.1790 C   0  0  0  0  0  0  0  0  0  0  0  0
    7.8593   -5.3772   15.3569 N   0  0  0  0  0  0  0  0  0  0  0  0
    7.4412   -6.9038   16.9283 C   0  0  0  0  0  0  0  0  0  0  0  0
  1 21  4  0
  1 23  4  0
  2  5  1  0
  2 13  4  0
  2 16  4  0
  3  6  4  0
  3  7  4  0
  4 13  4  0
  4 19  4  0
  4 24  4  0
  6 23  4  0
  7 16  1  0
  7 21  4  0
  8 18  1  0
  9 20  4  0
  9 22  4  0
 10 17  1  0
 10 25  1  0
 11 16  4  0
 11 19  4  0
 12 15  4  0
 12 22  4  0
 14 24  4  0
 14 25  4  0
 15 17  4  0
 17 20  4  0
 18 23  1  0
 19 25  4  0
M  END
$$$$

 Created by Python create_sdf_string function

 25 28  0  0  0  0  0  0  0  0999 V2000
   13.1533   -5.2399   21.0682 C   0  0  0  0  0  0  0  0  0  0  0  0
   10.4729   -4.0295   17.6135 C   0  0  0  0  0  0  0  0  0  0  0  0
   10.4789   -4.3641   20.9564 C   0  0  0  0  0  0  0  0  0  0  0  0
    8.7421   -5.1412   16.3650 C   0  0  0  0  0  0  0  0  0  0  0  0
   11.4353   -2.9204   17.8044 C   0  0  0  0  0  0  0  0  0  0  0  0
   11.1529   -4.3028   22.1277 C   0  0  0  0  0  0  0  0  0  0  0  0
   11.1290   -4.8502   19.8052 C   0  0  0  0  0  0  0  0  0  0  0  0
   12.4329   -4.2159   24.4224 C   0  0  0  0  0  0  0  0  0  0  0  0
    3.4740   -9.0387   16.5022 C   0  0  0  0  0  0  0  0  0  0  0  0
    6.8384   -7.9290   17.5282 N   0  0  0  0  0  0  0  0  0  0  0  0
    9.4126   -5.9853   18.4899 C   0  0  0  0  0  0  0  0  0  0  0  0
    4.2064  -10.3242   18.3302 C   0  0  0  0  0  0  0  0  0  0  0  0
    9.6599   -4.1551   16.4796 N   0  0  0  0  0  0  0  0  0  0  0  0
    7.0644   -6.4612   15.7375 N   0  0  0  0  0  0  0  0  0  0  0  0
    5.3549   -9.6322   18.3190 C   0  0  0  0  0  0  0  0  0  0  0  0
   10.3704   -4.9638   18.6510 C   0  0  0  0  0  0  0  0  0  0  0  0
    5.5935   -8.6419   17.4234 C   0  0  0  0  0  0  0  0  0  0  0  0
   13.0726   -4.6648   23.3394 O   0  0  0  0  0  0  0  0  0  0  0  0
    8.5955   -6.0705   17.3996 C   0  0  0  0  0  0  0  0  0  0  0  0
    4.6223   -8.3832   16.5030 C   0  0  0  0  0  0  0  0  0  0  0  0
   12.4690   -5.2624   19.9024 C   0  0  0  0  0  0  0  0  0  0  0  0
    3.2548   -9.9919   17.4189 C   0  0  0  0  0  0  0  0  0  0  0  0
   12.4767   -4.7393   22.1790 C   0  0  0  0  0  0  0  0  0  0  0  0
    7.8593   -5.3772   15.3569 N   0  0  0  0  0  0  0  0  0  0  0  0
    7.4412   -6.9038   16.9283 C   0  0  0  0  0  0  0  0  0  0  0  0
  1 21  4  0
  1 23  4  0
  2  5  1  0
  2 13  4  0
  2 16  4  0
  3  6  4  0
  3  7  4  0
  4 13  4  0
  4 19  4  0
  4 24  4  0
  6 23  4  0
  7 16  1  0
  7 21  4  0
  8 18  1  0
  9 20  4  0
  9 22  4  0
 10 17  1  0
 10 25  1  0
 11 16  4  0
 11 19  4  0
 12 15  4  0
 12 22  4  0
 14 24  4  0
 14 25  4  0
 15 17  4  0
 17 20  4  0
 18 23  1  0
 19 25  4  0
M  END
$$$$

 Created by Python create_sdf_string function

 25 28  0  0  0  0  0  0  0  0999 V2000
   13.1533   -5.2399   21.0682 C   0  0  0  0  0  0  0  0  0  0  0  0
   10.4729   -4.0295   17.6135 C   0  0  0  0  0  0  0  0  0  0  0  0
   10.4789   -4.3641   20.9564 C   0  0  0  0  0  0  0  0  0  0  0  0
    8.7421   -5.1412   16.3650 C   0  0  0  0  0  0  0  0  0  0  0  0
   11.4353   -2.9204   17.8044 C   0  0  0  0  0  0  0  0  0  0  0  0
   11.1529   -4.3028   22.1277 C   0  0  0  0  0  0  0  0  0  0  0  0
   11.1290   -4.8502   19.8052 C   0  0  0  0  0  0  0  0  0  0  0  0
   12.4329   -4.2159   24.4224 C   0  0  0  0  0  0  0  0  0  0  0  0
    3.4740   -9.0387   16.5022 C   0  0  0  0  0  0  0  0  0  0  0  0
    6.8384   -7.9290   17.5282 N   0  0  0  0  0  0  0  0  0  0  0  0
    9.4126   -5.9853   18.4899 C   0  0  0  0  0  0  0  0  0  0  0  0
    4.2064  -10.3242   18.3302 C   0  0  0  0  0  0  0  0  0  0  0  0
    9.6599   -4.1551   16.4796 N   0  0  0  0  0  0  0  0  0  0  0  0
    7.0644   -6.4612   15.7375 N   0  0  0  0  0  0  0  0  0  0  0  0
    5.3549   -9.6322   18.3190 C   0  0  0  0  0  0  0  0  0  0  0  0
   10.3704   -4.9638   18.6510 C   0  0  0  0  0  0  0  0  0  0  0  0
    5.5935   -8.6419   17.4234 C   0  0  0  0  0  0  0  0  0  0  0  0
   13.0726   -4.6648   23.3394 O   0  0  0  0  0  0  0  0  0  0  0  0
    8.5955   -6.0705   17.3996 C   0  0  0  0  0  0  0  0  0  0  0  0
    4.6223   -8.3832   16.5030 C   0  0  0  0  0  0  0  0  0  0  0  0
   12.4690   -5.2624   19.9024 C   0  0  0  0  0  0  0  0  0  0  0  0
    3.2548   -9.9919   17.4189 C   0  0  0  0  0  0  0  0  0  0  0  0
   12.4767   -4.7393   22.1790 C   0  0  0  0  0  0  0  0  0  0  0  0
    7.8593   -5.3772   15.3569 N   0  0  0  0  0  0  0  0  0  0  0  0
    7.4412   -6.9038   16.9283 C   0  0  0  0  0  0  0  0  0  0  0  0
  1 21  4  0
  1 23  4  0
  2  5  1  0
  2 13  4  0
  2 16  4  0
  3  6  4  0
  3  7  4  0
  4 13  4  0
  4 19  4  0
  4 24  4  0
  6 23  4  0
  7 16  1  0
  7 21  4  0
  8 18  1  0
  9 20  4  0
  9 22  4  0
 10 17  1  0
 10 25  1  0
 11 16  4  0
 11 19  4  0
 12 15  4  0
 12 22  4  0
 14 24  4  0
 14 25  4  0
 15 17  4  0
 17 20  4  0
 18 23  1  0
 19 25  4  0
M  END
$$$$

 Created by Python create_sdf_string function

 25 28  0  0  0  0  0  0  0  0999 V2000
   13.1533   -5.2399   21.0682 C   0  0  0  0  0  0  0  0  0  0  0  0
   10.4729   -4.0295   17.6135 C   0  0  0  0  0  0  0  0  0  0  0  0
   10.4789   -4.3641   20.9564 C   0  0  0  0  0  0  0  0  0  0  0  0
    8.7421   -5.1412   16.3650 C   0  0  0  0  0  0  0  0  0  0  0  0
   11.4353   -2.9204   17.8044 C   0  0  0  0  0  0  0  0  0  0  0  0
   11.1529   -4.3028   22.1277 C   0  0  0  0  0  0  0  0  0  0  0  0
   11.1290   -4.8502   19.8052 C   0  0  0  0  0  0  0  0  0  0  0  0
   12.4329   -4.2159   24.4224 C   0  0  0  0  0  0  0  0  0  0  0  0
    3.4740   -9.0387   16.5022 C   0  0  0  0  0  0  0  0  0  0  0  0
    6.8384   -7.9290   17.5282 N   0  0  0  0  0  0  0  0  0  0  0  0
    9.4126   -5.9853   18.4899 C   0  0  0  0  0  0  0  0  0  0  0  0
    4.2064  -10.3242   18.3302 C   0  0  0  0  0  0  0  0  0  0  0  0
    9.6599   -4.1551   16.4796 N   0  0  0  0  0  0  0  0  0  0  0  0
    7.0644   -6.4612   15.7375 N   0  0  0  0  0  0  0  0  0  0  0  0
    5.3549   -9.6322   18.3190 C   0  0  0  0  0  0  0  0  0  0  0  0
   10.3704   -4.9638   18.6510 C   0  0  0  0  0  0  0  0  0  0  0  0
    5.5935   -8.6419   17.4234 C   0  0  0  0  0  0  0  0  0  0  0  0
   13.0726   -4.6648   23.3394 O   0  0  0  0  0  0  0  0  0  0  0  0
    8.5955   -6.0705   17.3996 C   0  0  0  0  0  0  0  0  0  0  0  0
    4.6223   -8.3832   16.5030 C   0  0  0  0  0  0  0  0  0  0  0  0
   12.4690   -5.2624   19.9024 C   0  0  0  0  0  0  0  0  0  0  0  0
    3.2548   -9.9919   17.4189 C   0  0  0  0  0  0  0  0  0  0  0  0
   12.4767   -4.7393   22.1790 C   0  0  0  0  0  0  0  0  0  0  0  0
    7.8593   -5.3772   15.3569 N   0  0  0  0  0  0  0  0  0  0  0  0
    7.4412   -6.9038   16.9283 C   0  0  0  0  0  0  0  0  0  0  0  0
  1 21  4  0
  1 23  4  0
  2  5  1  0
  2 13  4  0
  2 16  4  0
  3  6  4  0
  3  7  4  0
  4 13  4  0
  4 19  4  0
  4 24  4  0
  6 23  4  0
  7 16  1  0
  7 21  4  0
  8 18  1  0
  9 20  4  0
  9 22  4  0
 10 17  1  0
 10 25  1  0
 11 16  4  0
 11 19  4  0
 12 15  4  0
 12 22  4  0
 14 24  4  0
 14 25  4  0
 15 17  4  0
 17 20  4  0
 18 23  1  0
 19 25  4  0
M  END
$$$$

 Created by Python create_sdf_string function

 25 28  0  0  0  0  0  0  0  0999 V2000
   13.1533   -5.2399   21.0682 C   0  0  0  0  0  0  0  0  0  0  0  0
   10.4729   -4.0295   17.6135 C   0  0  0  0  0  0  0  0  0  0  0  0
   10.4789   -4.3641   20.9564 C   0  0  0  0  0  0  0  0  0  0  0  0
    8.7421   -5.1412   16.3650 C   0  0  0  0  0  0  0  0  0  0  0  0
   11.4353   -2.9204   17.8044 C   0  0  0  0  0  0  0  0  0  0  0  0
   11.1529   -4.3028   22.1277 C   0  0  0  0  0  0  0  0  0  0  0  0
   11.1290   -4.8502   19.8052 C   0  0  0  0  0  0  0  0  0  0  0  0
   12.4329   -4.2159   24.4224 C   0  0  0  0  0  0  0  0  0  0  0  0
    3.4740   -9.0387   16.5022 C   0  0  0  0  0  0  0  0  0  0  0  0
    6.8384   -7.9290   17.5282 N   0  0  0  0  0  0  0  0  0  0  0  0
    9.4126   -5.9853   18.4899 C   0  0  0  0  0  0  0  0  0  0  0  0
    4.2064  -10.3242   18.3302 C   0  0  0  0  0  0  0  0  0  0  0  0
    9.6599   -4.1551   16.4796 N   0  0  0  0  0  0  0  0  0  0  0  0
    7.0644   -6.4612   15.7375 N   0  0  0  0  0  0  0  0  0  0  0  0
    5.3549   -9.6322   18.3190 C   0  0  0  0  0  0  0  0  0  0  0  0
   10.3704   -4.9638   18.6510 C   0  0  0  0  0  0  0  0  0  0  0  0
    5.5935   -8.6419   17.4234 C   0  0  0  0  0  0  0  0  0  0  0  0
   13.0726   -4.6648   23.3394 O   0  0  0  0  0  0  0  0  0  0  0  0
    8.5955   -6.0705   17.3996 C   0  0  0  0  0  0  0  0  0  0  0  0
    4.6223   -8.3832   16.5030 C   0  0  0  0  0  0  0  0  0  0  0  0
   12.4690   -5.2624   19.9024 C   0  0  0  0  0  0  0  0  0  0  0  0
    3.2548   -9.9919   17.4189 C   0  0  0  0  0  0  0  0  0  0  0  0
   12.4767   -4.7393   22.1790 C   0  0  0  0  0  0  0  0  0  0  0  0
    7.8593   -5.3772   15.3569 N   0  0  0  0  0  0  0  0  0  0  0  0
    7.4412   -6.9038   16.9283 C   0  0  0  0  0  0  0  0  0  0  0  0
  1 21  4  0
  1 23  4  0
  2  5  1  0
  2 13  4  0
  2 16  4  0
  3  6  4  0
  3  7  4  0
  4 13  4  0
  4 19  4  0
  4 24  4  0
  6 23  4  0
  7 16  1  0
  7 21  4  0
  8 18  1  0
  9 20  4  0
  9 22  4  0
 10 17  1  0
 10 25  1  0
 11 16  4  0
 11 19  4  0
 12 15  4  0
 12 22  4  0
 14 24  4  0
 14 25  4  0
 15 17  4  0
 17 20  4  0
 18 23  1  0
 19 25  4  0
M  END
$$$$

 Created by Python create_sdf_string function

 25 28  0  0  0  0  0  0  0  0999 V2000
   13.1533   -5.2399   21.0682 C   0  0  0  0  0  0  0  0  0  0  0  0
   10.4729   -4.0295   17.6135 C   0  0  0  0  0  0  0  0  0  0  0  0
   10.4789   -4.3641   20.9564 C   0  0  0  0  0  0  0  0  0  0  0  0
    8.7421   -5.1412   16.3650 C   0  0  0  0  0  0  0  0  0  0  0  0
   11.4353   -2.9204   17.8044 C   0  0  0  0  0  0  0  0  0  0  0  0
   11.1529   -4.3028   22.1277 C   0  0  0  0  0  0  0  0  0  0  0  0
   11.1290   -4.8502   19.8052 C   0  0  0  0  0  0  0  0  0  0  0  0
   12.4329   -4.2159   24.4224 C   0  0  0  0  0  0  0  0  0  0  0  0
    3.4740   -9.0387   16.5022 C   0  0  0  0  0  0  0  0  0  0  0  0
    6.8384   -7.9290   17.5282 N   0  0  0  0  0  0  0  0  0  0  0  0
    9.4126   -5.9853   18.4899 C   0  0  0  0  0  0  0  0  0  0  0  0
    4.2064  -10.3242   18.3302 C   0  0  0  0  0  0  0  0  0  0  0  0
    9.6599   -4.1551   16.4796 N   0  0  0  0  0  0  0  0  0  0  0  0
    7.0644   -6.4612   15.7375 N   0  0  0  0  0  0  0  0  0  0  0  0
    5.3549   -9.6322   18.3190 C   0  0  0  0  0  0  0  0  0  0  0  0
   10.3704   -4.9638   18.6510 C   0  0  0  0  0  0  0  0  0  0  0  0
    5.5935   -8.6419   17.4234 C   0  0  0  0  0  0  0  0  0  0  0  0
   13.0726   -4.6648   23.3394 O   0  0  0  0  0  0  0  0  0  0  0  0
    8.5955   -6.0705   17.3996 C   0  0  0  0  0  0  0  0  0  0  0  0
    4.6223   -8.3832   16.5030 C   0  0  0  0  0  0  0  0  0  0  0  0
   12.4690   -5.2624   19.9024 C   0  0  0  0  0  0  0  0  0  0  0  0
    3.2548   -9.9919   17.4189 C   0  0  0  0  0  0  0  0  0  0  0  0
   12.4767   -4.7393   22.1790 C   0  0  0  0  0  0  0  0  0  0  0  0
    7.8593   -5.3772   15.3569 N   0  0  0  0  0  0  0  0  0  0  0  0
    7.4412   -6.9038   16.9283 C   0  0  0  0  0  0  0  0  0  0  0  0
  1 21  4  0
  1 23  4  0
  2  5  1  0
  2 13  4  0
  2 16  4  0
  3  6  4  0
  3  7  4  0
  4 13  4  0
  4 19  4  0
  4 24  4  0
  6 23  4  0
  7 16  1  0
  7 21  4  0
  8 18  1  0
  9 20  4  0
  9 22  4  0
 10 17  1  0
 10 25  1  0
 11 16  4  0
 11 19  4  0
 12 15  4  0
 12 22  4  0
 14 24  4  0
 14 25  4  0
 15 17  4  0
 17 20  4  0
 18 23  1  0
 19 25  4  0
M  END
$$$$

 Created by Python create_sdf_string function

 25 28  0  0  0  0  0  0  0  0999 V2000
   13.1533   -5.2399   21.0682 C   0  0  0  0  0  0  0  0  0  0  0  0
   10.4729   -4.0295   17.6135 C   0  0  0  0  0  0  0  0  0  0  0  0
   10.4789   -4.3641   20.9564 C   0  0  0  0  0  0  0  0  0  0  0  0
    8.7421   -5.1412   16.3650 C   0  0  0  0  0  0  0  0  0  0  0  0
   11.4353   -2.9204   17.8044 C   0  0  0  0  0  0  0  0  0  0  0  0
   11.1529   -4.3028   22.1277 C   0  0  0  0  0  0  0  0  0  0  0  0
   11.1290   -4.8502   19.8052 C   0  0  0  0  0  0  0  0  0  0  0  0
   12.4329   -4.2159   24.4224 C   0  0  0  0  0  0  0  0  0  0  0  0
    3.4740   -9.0387   16.5022 C   0  0  0  0  0  0  0  0  0  0  0  0
    6.8384   -7.9290   17.5282 N   0  0  0  0  0  0  0  0  0  0  0  0
    9.4126   -5.9853   18.4899 C   0  0  0  0  0  0  0  0  0  0  0  0
    4.2064  -10.3242   18.3302 C   0  0  0  0  0  0  0  0  0  0  0  0
    9.6599   -4.1551   16.4796 N   0  0  0  0  0  0  0  0  0  0  0  0
    7.0644   -6.4612   15.7375 N   0  0  0  0  0  0  0  0  0  0  0  0
    5.3549   -9.6322   18.3190 C   0  0  0  0  0  0  0  0  0  0  0  0
   10.3704   -4.9638   18.6510 C   0  0  0  0  0  0  0  0  0  0  0  0
    5.5935   -8.6419   17.4234 C   0  0  0  0  0  0  0  0  0  0  0  0
   13.0726   -4.6648   23.3394 O   0  0  0  0  0  0  0  0  0  0  0  0
    8.5955   -6.0705   17.3996 C   0  0  0  0  0  0  0  0  0  0  0  0
    4.6223   -8.3832   16.5030 C   0  0  0  0  0  0  0  0  0  0  0  0
   12.4690   -5.2624   19.9024 C   0  0  0  0  0  0  0  0  0  0  0  0
    3.2548   -9.9919   17.4189 C   0  0  0  0  0  0  0  0  0  0  0  0
   12.4767   -4.7393   22.1790 C   0  0  0  0  0  0  0  0  0  0  0  0
    7.8593   -5.3772   15.3569 N   0  0  0  0  0  0  0  0  0  0  0  0
    7.4412   -6.9038   16.9283 C   0  0  0  0  0  0  0  0  0  0  0  0
  1 21  4  0
  1 23  4  0
  2  5  1  0
  2 13  4  0
  2 16  4  0
  3  6  4  0
  3  7  4  0
  4 13  4  0
  4 19  4  0
  4 24  4  0
  6 23  4  0
  7 16  1  0
  7 21  4  0
  8 18  1  0
  9 20  4  0
  9 22  4  0
 10 17  1  0
 10 25  1  0
 11 16  4  0
 11 19  4  0
 12 15  4  0
 12 22  4  0
 14 24  4  0
 14 25  4  0
 15 17  4  0
 17 20  4  0
 18 23  1  0
 19 25  4  0
M  END
$$$$

 Created by Python create_sdf_string function

 25 28  0  0  0  0  0  0  0  0999 V2000
   13.1533   -5.2399   21.0682 C   0  0  0  0  0  0  0  0  0  0  0  0
   10.4729   -4.0295   17.6135 C   0  0  0  0  0  0  0  0  0  0  0  0
   10.4789   -4.3641   20.9564 C   0  0  0  0  0  0  0  0  0  0  0  0
    8.7421   -5.1412   16.3650 C   0  0  0  0  0  0  0  0  0  0  0  0
   11.4353   -2.9204   17.8044 C   0  0  0  0  0  0  0  0  0  0  0  0
   11.1529   -4.3028   22.1277 C   0  0  0  0  0  0  0  0  0  0  0  0
   11.1290   -4.8502   19.8052 C   0  0  0  0  0  0  0  0  0  0  0  0
   12.4329   -4.2159   24.4224 C   0  0  0  0  0  0  0  0  0  0  0  0
    3.4740   -9.0387   16.5022 C   0  0  0  0  0  0  0  0  0  0  0  0
    6.8384   -7.9290   17.5282 N   0  0  0  0  0  0  0  0  0  0  0  0
    9.4126   -5.9853   18.4899 C   0  0  0  0  0  0  0  0  0  0  0  0
    4.2064  -10.3242   18.3302 C   0  0  0  0  0  0  0  0  0  0  0  0
    9.6599   -4.1551   16.4796 N   0  0  0  0  0  0  0  0  0  0  0  0
    7.0644   -6.4612   15.7375 N   0  0  0  0  0  0  0  0  0  0  0  0
    5.3549   -9.6322   18.3190 C   0  0  0  0  0  0  0  0  0  0  0  0
   10.3704   -4.9638   18.6510 C   0  0  0  0  0  0  0  0  0  0  0  0
    5.5935   -8.6419   17.4234 C   0  0  0  0  0  0  0  0  0  0  0  0
   13.0726   -4.6648   23.3394 O   0  0  0  0  0  0  0  0  0  0  0  0
    8.5955   -6.0705   17.3996 C   0  0  0  0  0  0  0  0  0  0  0  0
    4.6223   -8.3832   16.5030 C   0  0  0  0  0  0  0  0  0  0  0  0
   12.4690   -5.2624   19.9024 C   0  0  0  0  0  0  0  0  0  0  0  0
    3.2548   -9.9919   17.4189 C   0  0  0  0  0  0  0  0  0  0  0  0
   12.4767   -4.7393   22.1790 C   0  0  0  0  0  0  0  0  0  0  0  0
    7.8593   -5.3772   15.3569 N   0  0  0  0  0  0  0  0  0  0  0  0
    7.4412   -6.9038   16.9283 C   0  0  0  0  0  0  0  0  0  0  0  0
  1 21  4  0
  1 23  4  0
  2  5  1  0
  2 13  4  0
  2 16  4  0
  3  6  4  0
  3  7  4  0
  4 13  4  0
  4 19  4  0
  4 24  4  0
  6 23  4  0
  7 16  1  0
  7 21  4  0
  8 18  1  0
  9 20  4  0
  9 22  4  0
 10 17  1  0
 10 25  1  0
 11 16  4  0
 11 19  4  0
 12 15  4  0
 12 22  4  0
 14 24  4  0
 14 25  4  0
 15 17  4  0
 17 20  4  0
 18 23  1  0
 19 25  4  0
M  END
$$$$

 Created by Python create_sdf_string function

 25 28  0  0  0  0  0  0  0  0999 V2000
   13.1533   -5.2399   21.0682 C   0  0  0  0  0  0  0  0  0  0  0  0
   10.4729   -4.0295   17.6135 C   0  0  0  0  0  0  0  0  0  0  0  0
   10.4789   -4.3641   20.9564 C   0  0  0  0  0  0  0  0  0  0  0  0
    8.7421   -5.1412   16.3650 C   0  0  0  0  0  0  0  0  0  0  0  0
   11.4353   -2.9204   17.8044 C   0  0  0  0  0  0  0  0  0  0  0  0
   11.1529   -4.3028   22.1277 C   0  0  0  0  0  0  0  0  0  0  0  0
   11.1290   -4.8502   19.8052 C   0  0  0  0  0  0  0  0  0  0  0  0
   12.4329   -4.2159   24.4224 C   0  0  0  0  0  0  0  0  0  0  0  0
    3.4740   -9.0387   16.5022 C   0  0  0  0  0  0  0  0  0  0  0  0
    6.8384   -7.9290   17.5282 N   0  0  0  0  0  0  0  0  0  0  0  0
    9.4126   -5.9853   18.4899 C   0  0  0  0  0  0  0  0  0  0  0  0
    4.2064  -10.3242   18.3302 C   0  0  0  0  0  0  0  0  0  0  0  0
    9.6599   -4.1551   16.4796 N   0  0  0  0  0  0  0  0  0  0  0  0
    7.0644   -6.4612   15.7375 N   0  0  0  0  0  0  0  0  0  0  0  0
    5.3549   -9.6322   18.3190 C   0  0  0  0  0  0  0  0  0  0  0  0
   10.3704   -4.9638   18.6510 C   0  0  0  0  0  0  0  0  0  0  0  0
    5.5935   -8.6419   17.4234 C   0  0  0  0  0  0  0  0  0  0  0  0
   13.0726   -4.6648   23.3394 O   0  0  0  0  0  0  0  0  0  0  0  0
    8.5955   -6.0705   17.3996 C   0  0  0  0  0  0  0  0  0  0  0  0
    4.6223   -8.3832   16.5030 C   0  0  0  0  0  0  0  0  0  0  0  0
   12.4690   -5.2624   19.9024 C   0  0  0  0  0  0  0  0  0  0  0  0
    3.2548   -9.9919   17.4189 C   0  0  0  0  0  0  0  0  0  0  0  0
   12.4767   -4.7393   22.1790 C   0  0  0  0  0  0  0  0  0  0  0  0
    7.8593   -5.3772   15.3569 N   0  0  0  0  0  0  0  0  0  0  0  0
    7.4412   -6.9038   16.9283 C   0  0  0  0  0  0  0  0  0  0  0  0
  1 21  4  0
  1 23  4  0
  2  5  1  0
  2 13  4  0
  2 16  4  0
  3  6  4  0
  3  7  4  0
  4 13  4  0
  4 19  4  0
  4 24  4  0
  6 23  4  0
  7 16  1  0
  7 21  4  0
  8 18  1  0
  9 20  4  0
  9 22  4  0
 10 17  1  0
 10 25  1  0
 11 16  4  0
 11 19  4  0
 12 15  4  0
 12 22  4  0
 14 24  4  0
 14 25  4  0
 15 17  4  0
 17 20  4  0
 18 23  1  0
 19 25  4  0
M  END
$$$$

 Created by Python create_sdf_string function

 25 28  0  0  0  0  0  0  0  0999 V2000
   13.1533   -5.2399   21.0682 C   0  0  0  0  0  0  0  0  0  0  0  0
   10.4729   -4.0295   17.6135 C   0  0  0  0  0  0  0  0  0  0  0  0
   10.4789   -4.3641   20.9564 C   0  0  0  0  0  0  0  0  0  0  0  0
    8.7421   -5.1412   16.3650 C   0  0  0  0  0  0  0  0  0  0  0  0
   11.4353   -2.9204   17.8044 C   0  0  0  0  0  0  0  0  0  0  0  0
   11.1529   -4.3028   22.1277 C   0  0  0  0  0  0  0  0  0  0  0  0
   11.1290   -4.8502   19.8052 C   0  0  0  0  0  0  0  0  0  0  0  0
   12.4329   -4.2159   24.4224 C   0  0  0  0  0  0  0  0  0  0  0  0
    3.4740   -9.0387   16.5022 C   0  0  0  0  0  0  0  0  0  0  0  0
    6.8384   -7.9290   17.5282 N   0  0  0  0  0  0  0  0  0  0  0  0
    9.4126   -5.9853   18.4899 C   0  0  0  0  0  0  0  0  0  0  0  0
    4.2064  -10.3242   18.3302 C   0  0  0  0  0  0  0  0  0  0  0  0
    9.6599   -4.1551   16.4796 N   0  0  0  0  0  0  0  0  0  0  0  0
    7.0644   -6.4612   15.7375 N   0  0  0  0  0  0  0  0  0  0  0  0
    5.3549   -9.6322   18.3190 C   0  0  0  0  0  0  0  0  0  0  0  0
   10.3704   -4.9638   18.6510 C   0  0  0  0  0  0  0  0  0  0  0  0
    5.5935   -8.6419   17.4234 C   0  0  0  0  0  0  0  0  0  0  0  0
   13.0726   -4.6648   23.3394 O   0  0  0  0  0  0  0  0  0  0  0  0
    8.5955   -6.0705   17.3996 C   0  0  0  0  0  0  0  0  0  0  0  0
    4.6223   -8.3832   16.5030 C   0  0  0  0  0  0  0  0  0  0  0  0
   12.4690   -5.2624   19.9024 C   0  0  0  0  0  0  0  0  0  0  0  0
    3.2548   -9.9919   17.4189 C   0  0  0  0  0  0  0  0  0  0  0  0
   12.4767   -4.7393   22.1790 C   0  0  0  0  0  0  0  0  0  0  0  0
    7.8593   -5.3772   15.3569 N   0  0  0  0  0  0  0  0  0  0  0  0
    7.4412   -6.9038   16.9283 C   0  0  0  0  0  0  0  0  0  0  0  0
  1 21  4  0
  1 23  4  0
  2  5  1  0
  2 13  4  0
  2 16  4  0
  3  6  4  0
  3  7  4  0
  4 13  4  0
  4 19  4  0
  4 24  4  0
  6 23  4  0
  7 16  1  0
  7 21  4  0
  8 18  1  0
  9 20  4  0
  9 22  4  0
 10 17  1  0
 10 25  1  0
 11 16  4  0
 11 19  4  0
 12 15  4  0
 12 22  4  0
 14 24  4  0
 14 25  4  0
 15 17  4  0
 17 20  4  0
 18 23  1  0
 19 25  4  0
M  END
$$$$

 Created by Python create_sdf_string function

 25 28  0  0  0  0  0  0  0  0999 V2000
   13.1533   -5.2399   21.0682 C   0  0  0  0  0  0  0  0  0  0  0  0
   10.4729   -4.0295   17.6135 C   0  0  0  0  0  0  0  0  0  0  0  0
   10.4789   -4.3641   20.9564 C   0  0  0  0  0  0  0  0  0  0  0  0
    8.7421   -5.1412   16.3650 C   0  0  0  0  0  0  0  0  0  0  0  0
   11.4353   -2.9204   17.8044 C   0  0  0  0  0  0  0  0  0  0  0  0
   11.1529   -4.3028   22.1277 C   0  0  0  0  0  0  0  0  0  0  0  0
   11.1290   -4.8502   19.8052 C   0  0  0  0  0  0  0  0  0  0  0  0
   12.4329   -4.2159   24.4224 C   0  0  0  0  0  0  0  0  0  0  0  0
    3.4740   -9.0387   16.5022 C   0  0  0  0  0  0  0  0  0  0  0  0
    6.8384   -7.9290   17.5282 N   0  0  0  0  0  0  0  0  0  0  0  0
    9.4126   -5.9853   18.4899 C   0  0  0  0  0  0  0  0  0  0  0  0
    4.2064  -10.3242   18.3302 C   0  0  0  0  0  0  0  0  0  0  0  0
    9.6599   -4.1551   16.4796 N   0  0  0  0  0  0  0  0  0  0  0  0
    7.0644   -6.4612   15.7375 N   0  0  0  0  0  0  0  0  0  0  0  0
    5.3549   -9.6322   18.3190 C   0  0  0  0  0  0  0  0  0  0  0  0
   10.3704   -4.9638   18.6510 C   0  0  0  0  0  0  0  0  0  0  0  0
    5.5935   -8.6419   17.4234 C   0  0  0  0  0  0  0  0  0  0  0  0
   13.0726   -4.6648   23.3394 O   0  0  0  0  0  0  0  0  0  0  0  0
    8.5955   -6.0705   17.3996 C   0  0  0  0  0  0  0  0  0  0  0  0
    4.6223   -8.3832   16.5030 C   0  0  0  0  0  0  0  0  0  0  0  0
   12.4690   -5.2624   19.9024 C   0  0  0  0  0  0  0  0  0  0  0  0
    3.2548   -9.9919   17.4189 C   0  0  0  0  0  0  0  0  0  0  0  0
   12.4767   -4.7393   22.1790 C   0  0  0  0  0  0  0  0  0  0  0  0
    7.8593   -5.3772   15.3569 N   0  0  0  0  0  0  0  0  0  0  0  0
    7.4412   -6.9038   16.9283 C   0  0  0  0  0  0  0  0  0  0  0  0
  1 21  4  0
  1 23  4  0
  2  5  1  0
  2 13  4  0
  2 16  4  0
  3  6  4  0
  3  7  4  0
  4 13  4  0
  4 19  4  0
  4 24  4  0
  6 23  4  0
  7 16  1  0
  7 21  4  0
  8 18  1  0
  9 20  4  0
  9 22  4  0
 10 17  1  0
 10 25  1  0
 11 16  4  0
 11 19  4  0
 12 15  4  0
 12 22  4  0
 14 24  4  0
 14 25  4  0
 15 17  4  0
 17 20  4  0
 18 23  1  0
 19 25  4  0
M  END
$$$$

 Created by Python create_sdf_string function

 25 28  0  0  0  0  0  0  0  0999 V2000
   13.1533   -5.2399   21.0682 C   0  0  0  0  0  0  0  0  0  0  0  0
   10.4729   -4.0295   17.6135 C   0  0  0  0  0  0  0  0  0  0  0  0
   10.4789   -4.3641   20.9564 C   0  0  0  0  0  0  0  0  0  0  0  0
    8.7421   -5.1412   16.3650 C   0  0  0  0  0  0  0  0  0  0  0  0
   11.4353   -2.9204   17.8044 C   0  0  0  0  0  0  0  0  0  0  0  0
   11.1529   -4.3028   22.1277 C   0  0  0  0  0  0  0  0  0  0  0  0
   11.1290   -4.8502   19.8052 C   0  0  0  0  0  0  0  0  0  0  0  0
   12.4329   -4.2159   24.4224 C   0  0  0  0  0  0  0  0  0  0  0  0
    3.4740   -9.0387   16.5022 C   0  0  0  0  0  0  0  0  0  0  0  0
    6.8384   -7.9290   17.5282 N   0  0  0  0  0  0  0  0  0  0  0  0
    9.4126   -5.9853   18.4899 C   0  0  0  0  0  0  0  0  0  0  0  0
    4.2064  -10.3242   18.3302 C   0  0  0  0  0  0  0  0  0  0  0  0
    9.6599   -4.1551   16.4796 N   0  0  0  0  0  0  0  0  0  0  0  0
    7.0644   -6.4612   15.7375 N   0  0  0  0  0  0  0  0  0  0  0  0
    5.3549   -9.6322   18.3190 C   0  0  0  0  0  0  0  0  0  0  0  0
   10.3704   -4.9638   18.6510 C   0  0  0  0  0  0  0  0  0  0  0  0
    5.5935   -8.6419   17.4234 C   0  0  0  0  0  0  0  0  0  0  0  0
   13.0726   -4.6648   23.3394 O   0  0  0  0  0  0  0  0  0  0  0  0
    8.5955   -6.0705   17.3996 C   0  0  0  0  0  0  0  0  0  0  0  0
    4.6223   -8.3832   16.5030 C   0  0  0  0  0  0  0  0  0  0  0  0
   12.4690   -5.2624   19.9024 C   0  0  0  0  0  0  0  0  0  0  0  0
    3.2548   -9.9919   17.4189 C   0  0  0  0  0  0  0  0  0  0  0  0
   12.4767   -4.7393   22.1790 C   0  0  0  0  0  0  0  0  0  0  0  0
    7.8593   -5.3772   15.3569 N   0  0  0  0  0  0  0  0  0  0  0  0
    7.4412   -6.9038   16.9283 C   0  0  0  0  0  0  0  0  0  0  0  0
  1 21  4  0
  1 23  4  0
  2  5  1  0
  2 13  4  0
  2 16  4  0
  3  6  4  0
  3  7  4  0
  4 13  4  0
  4 19  4  0
  4 24  4  0
  6 23  4  0
  7 16  1  0
  7 21  4  0
  8 18  1  0
  9 20  4  0
  9 22  4  0
 10 17  1  0
 10 25  1  0
 11 16  4  0
 11 19  4  0
 12 15  4  0
 12 22  4  0
 14 24  4  0
 14 25  4  0
 15 17  4  0
 17 20  4  0
 18 23  1  0
 19 25  4  0
M  END
$$$$

 Created by Python create_sdf_string function

 25 28  0  0  0  0  0  0  0  0999 V2000
   13.1533   -5.2399   21.0682 C   0  0  0  0  0  0  0  0  0  0  0  0
   10.4729   -4.0295   17.6135 C   0  0  0  0  0  0  0  0  0  0  0  0
   10.4789   -4.3641   20.9564 C   0  0  0  0  0  0  0  0  0  0  0  0
    8.7421   -5.1412   16.3650 C   0  0  0  0  0  0  0  0  0  0  0  0
   11.4353   -2.9204   17.8044 C   0  0  0  0  0  0  0  0  0  0  0  0
   11.1529   -4.3028   22.1277 C   0  0  0  0  0  0  0  0  0  0  0  0
   11.1290   -4.8502   19.8052 C   0  0  0  0  0  0  0  0  0  0  0  0
   12.4329   -4.2159   24.4224 C   0  0  0  0  0  0  0  0  0  0  0  0
    3.4740   -9.0387   16.5022 C   0  0  0  0  0  0  0  0  0  0  0  0
    6.8384   -7.9290   17.5282 N   0  0  0  0  0  0  0  0  0  0  0  0
    9.4126   -5.9853   18.4899 C   0  0  0  0  0  0  0  0  0  0  0  0
    4.2064  -10.3242   18.3302 C   0  0  0  0  0  0  0  0  0  0  0  0
    9.6599   -4.1551   16.4796 N   0  0  0  0  0  0  0  0  0  0  0  0
    7.0644   -6.4612   15.7375 N   0  0  0  0  0  0  0  0  0  0  0  0
    5.3549   -9.6322   18.3190 C   0  0  0  0  0  0  0  0  0  0  0  0
   10.3704   -4.9638   18.6510 C   0  0  0  0  0  0  0  0  0  0  0  0
    5.5935   -8.6419   17.4234 C   0  0  0  0  0  0  0  0  0  0  0  0
   13.0726   -4.6648   23.3394 O   0  0  0  0  0  0  0  0  0  0  0  0
    8.5955   -6.0705   17.3996 C   0  0  0  0  0  0  0  0  0  0  0  0
    4.6223   -8.3832   16.5030 C   0  0  0  0  0  0  0  0  0  0  0  0
   12.4690   -5.2624   19.9024 C   0  0  0  0  0  0  0  0  0  0  0  0
    3.2548   -9.9919   17.4189 C   0  0  0  0  0  0  0  0  0  0  0  0
   12.4767   -4.7393   22.1790 C   0  0  0  0  0  0  0  0  0  0  0  0
    7.8593   -5.3772   15.3569 N   0  0  0  0  0  0  0  0  0  0  0  0
    7.4412   -6.9038   16.9283 C   0  0  0  0  0  0  0  0  0  0  0  0
  1 21  4  0
  1 23  4  0
  2  5  1  0
  2 13  4  0
  2 16  4  0
  3  6  4  0
  3  7  4  0
  4 13  4  0
  4 19  4  0
  4 24  4  0
  6 23  4  0
  7 16  1  0
  7 21  4  0
  8 18  1  0
  9 20  4  0
  9 22  4  0
 10 17  1  0
 10 25  1  0
 11 16  4  0
 11 19  4  0
 12 15  4  0
 12 22  4  0
 14 24  4  0
 14 25  4  0
 15 17  4  0
 17 20  4  0
 18 23  1  0
 19 25  4  0
M  END
$$$$

 Created by Python create_sdf_string function

 25 28  0  0  0  0  0  0  0  0999 V2000
   13.1533   -5.2399   21.0682 C   0  0  0  0  0  0  0  0  0  0  0  0
   10.4729   -4.0295   17.6135 C   0  0  0  0  0  0  0  0  0  0  0  0
   10.4789   -4.3641   20.9564 C   0  0  0  0  0  0  0  0  0  0  0  0
    8.7421   -5.1412   16.3650 C   0  0  0  0  0  0  0  0  0  0  0  0
   11.4353   -2.9204   17.8044 C   0  0  0  0  0  0  0  0  0  0  0  0
   11.1529   -4.3028   22.1277 C   0  0  0  0  0  0  0  0  0  0  0  0
   11.1290   -4.8502   19.8052 C   0  0  0  0  0  0  0  0  0  0  0  0
   12.4329   -4.2159   24.4224 C   0  0  0  0  0  0  0  0  0  0  0  0
    3.4740   -9.0387   16.5022 C   0  0  0  0  0  0  0  0  0  0  0  0
    6.8384   -7.9290   17.5282 N   0  0  0  0  0  0  0  0  0  0  0  0
    9.4126   -5.9853   18.4899 C   0  0  0  0  0  0  0  0  0  0  0  0
    4.2064  -10.3242   18.3302 C   0  0  0  0  0  0  0  0  0  0  0  0
    9.6599   -4.1551   16.4796 N   0  0  0  0  0  0  0  0  0  0  0  0
    7.0644   -6.4612   15.7375 N   0  0  0  0  0  0  0  0  0  0  0  0
    5.3549   -9.6322   18.3190 C   0  0  0  0  0  0  0  0  0  0  0  0
   10.3704   -4.9638   18.6510 C   0  0  0  0  0  0  0  0  0  0  0  0
    5.5935   -8.6419   17.4234 C   0  0  0  0  0  0  0  0  0  0  0  0
   13.0726   -4.6648   23.3394 O   0  0  0  0  0  0  0  0  0  0  0  0
    8.5955   -6.0705   17.3996 C   0  0  0  0  0  0  0  0  0  0  0  0
    4.6223   -8.3832   16.5030 C   0  0  0  0  0  0  0  0  0  0  0  0
   12.4690   -5.2624   19.9024 C   0  0  0  0  0  0  0  0  0  0  0  0
    3.2548   -9.9919   17.4189 C   0  0  0  0  0  0  0  0  0  0  0  0
   12.4767   -4.7393   22.1790 C   0  0  0  0  0  0  0  0  0  0  0  0
    7.8593   -5.3772   15.3569 N   0  0  0  0  0  0  0  0  0  0  0  0
    7.4412   -6.9038   16.9283 C   0  0  0  0  0  0  0  0  0  0  0  0
  1 21  4  0
  1 23  4  0
  2  5  1  0
  2 13  4  0
  2 16  4  0
  3  6  4  0
  3  7  4  0
  4 13  4  0
  4 19  4  0
  4 24  4  0
  6 23  4  0
  7 16  1  0
  7 21  4  0
  8 18  1  0
  9 20  4  0
  9 22  4  0
 10 17  1  0
 10 25  1  0
 11 16  4  0
 11 19  4  0
 12 15  4  0
 12 22  4  0
 14 24  4  0
 14 25  4  0
 15 17  4  0
 17 20  4  0
 18 23  1  0
 19 25  4  0
M  END
$$$$

 Created by Python create_sdf_string function

 25 28  0  0  0  0  0  0  0  0999 V2000
   13.1533   -5.2399   21.0682 C   0  0  0  0  0  0  0  0  0  0  0  0
   10.4729   -4.0295   17.6135 C   0  0  0  0  0  0  0  0  0  0  0  0
   10.4789   -4.3641   20.9564 C   0  0  0  0  0  0  0  0  0  0  0  0
    8.7421   -5.1412   16.3650 C   0  0  0  0  0  0  0  0  0  0  0  0
   11.4353   -2.9204   17.8044 C   0  0  0  0  0  0  0  0  0  0  0  0
   11.1529   -4.3028   22.1277 C   0  0  0  0  0  0  0  0  0  0  0  0
   11.1290   -4.8502   19.8052 C   0  0  0  0  0  0  0  0  0  0  0  0
   12.4329   -4.2159   24.4224 C   0  0  0  0  0  0  0  0  0  0  0  0
    3.4740   -9.0387   16.5022 C   0  0  0  0  0  0  0  0  0  0  0  0
    6.8384   -7.9290   17.5282 N   0  0  0  0  0  0  0  0  0  0  0  0
    9.4126   -5.9853   18.4899 C   0  0  0  0  0  0  0  0  0  0  0  0
    4.2064  -10.3242   18.3302 C   0  0  0  0  0  0  0  0  0  0  0  0
    9.6599   -4.1551   16.4796 N   0  0  0  0  0  0  0  0  0  0  0  0
    7.0644   -6.4612   15.7375 N   0  0  0  0  0  0  0  0  0  0  0  0
    5.3549   -9.6322   18.3190 C   0  0  0  0  0  0  0  0  0  0  0  0
   10.3704   -4.9638   18.6510 C   0  0  0  0  0  0  0  0  0  0  0  0
    5.5935   -8.6419   17.4234 C   0  0  0  0  0  0  0  0  0  0  0  0
   13.0726   -4.6648   23.3394 O   0  0  0  0  0  0  0  0  0  0  0  0
    8.5955   -6.0705   17.3996 C   0  0  0  0  0  0  0  0  0  0  0  0
    4.6223   -8.3832   16.5030 C   0  0  0  0  0  0  0  0  0  0  0  0
   12.4690   -5.2624   19.9024 C   0  0  0  0  0  0  0  0  0  0  0  0
    3.2548   -9.9919   17.4189 C   0  0  0  0  0  0  0  0  0  0  0  0
   12.4767   -4.7393   22.1790 C   0  0  0  0  0  0  0  0  0  0  0  0
    7.8593   -5.3772   15.3569 N   0  0  0  0  0  0  0  0  0  0  0  0
    7.4412   -6.9038   16.9283 C   0  0  0  0  0  0  0  0  0  0  0  0
  1 21  4  0
  1 23  4  0
  2  5  1  0
  2 13  4  0
  2 16  4  0
  3  6  4  0
  3  7  4  0
  4 13  4  0
  4 19  4  0
  4 24  4  0
  6 23  4  0
  7 16  1  0
  7 21  4  0
  8 18  1  0
  9 20  4  0
  9 22  4  0
 10 17  1  0
 10 25  1  0
 11 16  4  0
 11 19  4  0
 12 15  4  0
 12 22  4  0
 14 24  4  0
 14 25  4  0
 15 17  4  0
 17 20  4  0
 18 23  1  0
 19 25  4  0
M  END
$$$$

 Created by Python create_sdf_string function

 25 28  0  0  0  0  0  0  0  0999 V2000
   13.1533   -5.2399   21.0682 C   0  0  0  0  0  0  0  0  0  0  0  0
   10.4729   -4.0295   17.6135 C   0  0  0  0  0  0  0  0  0  0  0  0
   10.4789   -4.3641   20.9564 C   0  0  0  0  0  0  0  0  0  0  0  0
    8.7421   -5.1412   16.3650 C   0  0  0  0  0  0  0  0  0  0  0  0
   11.4353   -2.9204   17.8044 C   0  0  0  0  0  0  0  0  0  0  0  0
   11.1529   -4.3028   22.1277 C   0  0  0  0  0  0  0  0  0  0  0  0
   11.1290   -4.8502   19.8052 C   0  0  0  0  0  0  0  0  0  0  0  0
   12.4329   -4.2159   24.4224 C   0  0  0  0  0  0  0  0  0  0  0  0
    3.4740   -9.0387   16.5022 C   0  0  0  0  0  0  0  0  0  0  0  0
    6.8384   -7.9290   17.5282 N   0  0  0  0  0  0  0  0  0  0  0  0
    9.4126   -5.9853   18.4899 C   0  0  0  0  0  0  0  0  0  0  0  0
    4.2064  -10.3242   18.3302 C   0  0  0  0  0  0  0  0  0  0  0  0
    9.6599   -4.1551   16.4796 N   0  0  0  0  0  0  0  0  0  0  0  0
    7.0644   -6.4612   15.7375 N   0  0  0  0  0  0  0  0  0  0  0  0
    5.3549   -9.6322   18.3190 C   0  0  0  0  0  0  0  0  0  0  0  0
   10.3704   -4.9638   18.6510 C   0  0  0  0  0  0  0  0  0  0  0  0
    5.5935   -8.6419   17.4234 C   0  0  0  0  0  0  0  0  0  0  0  0
   13.0726   -4.6648   23.3394 O   0  0  0  0  0  0  0  0  0  0  0  0
    8.5955   -6.0705   17.3996 C   0  0  0  0  0  0  0  0  0  0  0  0
    4.6223   -8.3832   16.5030 C   0  0  0  0  0  0  0  0  0  0  0  0
   12.4690   -5.2624   19.9024 C   0  0  0  0  0  0  0  0  0  0  0  0
    3.2548   -9.9919   17.4189 C   0  0  0  0  0  0  0  0  0  0  0  0
   12.4767   -4.7393   22.1790 C   0  0  0  0  0  0  0  0  0  0  0  0
    7.8593   -5.3772   15.3569 N   0  0  0  0  0  0  0  0  0  0  0  0
    7.4412   -6.9038   16.9283 C   0  0  0  0  0  0  0  0  0  0  0  0
  1 21  4  0
  1 23  4  0
  2  5  1  0
  2 13  4  0
  2 16  4  0
  3  6  4  0
  3  7  4  0
  4 13  4  0
  4 19  4  0
  4 24  4  0
  6 23  4  0
  7 16  1  0
  7 21  4  0
  8 18  1  0
  9 20  4  0
  9 22  4  0
 10 17  1  0
 10 25  1  0
 11 16  4  0
 11 19  4  0
 12 15  4  0
 12 22  4  0
 14 24  4  0
 14 25  4  0
 15 17  4  0
 17 20  4  0
 18 23  1  0
 19 25  4  0
M  END
$$$$

 Created by Python create_sdf_string function

 25 28  0  0  0  0  0  0  0  0999 V2000
   13.1533   -5.2399   21.0682 C   0  0  0  0  0  0  0  0  0  0  0  0
   10.4729   -4.0295   17.6135 C   0  0  0  0  0  0  0  0  0  0  0  0
   10.4789   -4.3641   20.9564 C   0  0  0  0  0  0  0  0  0  0  0  0
    8.7421   -5.1412   16.3650 C   0  0  0  0  0  0  0  0  0  0  0  0
   11.4353   -2.9204   17.8044 C   0  0  0  0  0  0  0  0  0  0  0  0
   11.1529   -4.3028   22.1277 C   0  0  0  0  0  0  0  0  0  0  0  0
   11.1290   -4.8502   19.8052 C   0  0  0  0  0  0  0  0  0  0  0  0
   12.4329   -4.2159   24.4224 C   0  0  0  0  0  0  0  0  0  0  0  0
    3.4740   -9.0387   16.5022 C   0  0  0  0  0  0  0  0  0  0  0  0
    6.8384   -7.9290   17.5282 N   0  0  0  0  0  0  0  0  0  0  0  0
    9.4126   -5.9853   18.4899 C   0  0  0  0  0  0  0  0  0  0  0  0
    4.2064  -10.3242   18.3302 C   0  0  0  0  0  0  0  0  0  0  0  0
    9.6599   -4.1551   16.4796 N   0  0  0  0  0  0  0  0  0  0  0  0
    7.0644   -6.4612   15.7375 N   0  0  0  0  0  0  0  0  0  0  0  0
    5.3549   -9.6322   18.3190 C   0  0  0  0  0  0  0  0  0  0  0  0
   10.3704   -4.9638   18.6510 C   0  0  0  0  0  0  0  0  0  0  0  0
    5.5935   -8.6419   17.4234 C   0  0  0  0  0  0  0  0  0  0  0  0
   13.0726   -4.6648   23.3394 O   0  0  0  0  0  0  0  0  0  0  0  0
    8.5955   -6.0705   17.3996 C   0  0  0  0  0  0  0  0  0  0  0  0
    4.6223   -8.3832   16.5030 C   0  0  0  0  0  0  0  0  0  0  0  0
   12.4690   -5.2624   19.9024 C   0  0  0  0  0  0  0  0  0  0  0  0
    3.2548   -9.9919   17.4189 C   0  0  0  0  0  0  0  0  0  0  0  0
   12.4767   -4.7393   22.1790 C   0  0  0  0  0  0  0  0  0  0  0  0
    7.8593   -5.3772   15.3569 N   0  0  0  0  0  0  0  0  0  0  0  0
    7.4412   -6.9038   16.9283 C   0  0  0  0  0  0  0  0  0  0  0  0
  1 21  4  0
  1 23  4  0
  2  5  1  0
  2 13  4  0
  2 16  4  0
  3  6  4  0
  3  7  4  0
  4 13  4  0
  4 19  4  0
  4 24  4  0
  6 23  4  0
  7 16  1  0
  7 21  4  0
  8 18  1  0
  9 20  4  0
  9 22  4  0
 10 17  1  0
 10 25  1  0
 11 16  4  0
 11 19  4  0
 12 15  4  0
 12 22  4  0
 14 24  4  0
 14 25  4  0
 15 17  4  0
 17 20  4  0
 18 23  1  0
 19 25  4  0
M  END
$$$$

 Created by Python create_sdf_string function

 25 28  0  0  0  0  0  0  0  0999 V2000
   13.1533   -5.2399   21.0682 C   0  0  0  0  0  0  0  0  0  0  0  0
   10.4729   -4.0295   17.6135 C   0  0  0  0  0  0  0  0  0  0  0  0
   10.4789   -4.3641   20.9564 C   0  0  0  0  0  0  0  0  0  0  0  0
    8.7421   -5.1412   16.3650 C   0  0  0  0  0  0  0  0  0  0  0  0
   11.4353   -2.9204   17.8044 C   0  0  0  0  0  0  0  0  0  0  0  0
   11.1529   -4.3028   22.1277 C   0  0  0  0  0  0  0  0  0  0  0  0
   11.1290   -4.8502   19.8052 C   0  0  0  0  0  0  0  0  0  0  0  0
   12.4329   -4.2159   24.4224 C   0  0  0  0  0  0  0  0  0  0  0  0
    3.4740   -9.0387   16.5022 C   0  0  0  0  0  0  0  0  0  0  0  0
    6.8384   -7.9290   17.5282 N   0  0  0  0  0  0  0  0  0  0  0  0
    9.4126   -5.9853   18.4899 C   0  0  0  0  0  0  0  0  0  0  0  0
    4.2064  -10.3242   18.3302 C   0  0  0  0  0  0  0  0  0  0  0  0
    9.6599   -4.1551   16.4796 N   0  0  0  0  0  0  0  0  0  0  0  0
    7.0644   -6.4612   15.7375 N   0  0  0  0  0  0  0  0  0  0  0  0
    5.3549   -9.6322   18.3190 C   0  0  0  0  0  0  0  0  0  0  0  0
   10.3704   -4.9638   18.6510 C   0  0  0  0  0  0  0  0  0  0  0  0
    5.5935   -8.6419   17.4234 C   0  0  0  0  0  0  0  0  0  0  0  0
   13.0726   -4.6648   23.3394 O   0  0  0  0  0  0  0  0  0  0  0  0
    8.5955   -6.0705   17.3996 C   0  0  0  0  0  0  0  0  0  0  0  0
    4.6223   -8.3832   16.5030 C   0  0  0  0  0  0  0  0  0  0  0  0
   12.4690   -5.2624   19.9024 C   0  0  0  0  0  0  0  0  0  0  0  0
    3.2548   -9.9919   17.4189 C   0  0  0  0  0  0  0  0  0  0  0  0
   12.4767   -4.7393   22.1790 C   0  0  0  0  0  0  0  0  0  0  0  0
    7.8593   -5.3772   15.3569 N   0  0  0  0  0  0  0  0  0  0  0  0
    7.4412   -6.9038   16.9283 C   0  0  0  0  0  0  0  0  0  0  0  0
  1 21  4  0
  1 23  4  0
  2  5  1  0
  2 13  4  0
  2 16  4  0
  3  6  4  0
  3  7  4  0
  4 13  4  0
  4 19  4  0
  4 24  4  0
  6 23  4  0
  7 16  1  0
  7 21  4  0
  8 18  1  0
  9 20  4  0
  9 22  4  0
 10 17  1  0
 10 25  1  0
 11 16  4  0
 11 19  4  0
 12 15  4  0
 12 22  4  0
 14 24  4  0
 14 25  4  0
 15 17  4  0
 17 20  4  0
 18 23  1  0
 19 25  4  0
M  END
$$$$

 Created by Python create_sdf_string function

 25 28  0  0  0  0  0  0  0  0999 V2000
   13.1533   -5.2399   21.0682 C   0  0  0  0  0  0  0  0  0  0  0  0
   10.4729   -4.0295   17.6135 C   0  0  0  0  0  0  0  0  0  0  0  0
   10.4789   -4.3641   20.9564 C   0  0  0  0  0  0  0  0  0  0  0  0
    8.7421   -5.1412   16.3650 C   0  0  0  0  0  0  0  0  0  0  0  0
   11.4353   -2.9204   17.8044 C   0  0  0  0  0  0  0  0  0  0  0  0
   11.1529   -4.3028   22.1277 C   0  0  0  0  0  0  0  0  0  0  0  0
   11.1290   -4.8502   19.8052 C   0  0  0  0  0  0  0  0  0  0  0  0
   12.4329   -4.2159   24.4224 C   0  0  0  0  0  0  0  0  0  0  0  0
    3.4740   -9.0387   16.5022 C   0  0  0  0  0  0  0  0  0  0  0  0
    6.8384   -7.9290   17.5282 N   0  0  0  0  0  0  0  0  0  0  0  0
    9.4126   -5.9853   18.4899 C   0  0  0  0  0  0  0  0  0  0  0  0
    4.2064  -10.3242   18.3302 C   0  0  0  0  0  0  0  0  0  0  0  0
    9.6599   -4.1551   16.4796 N   0  0  0  0  0  0  0  0  0  0  0  0
    7.0644   -6.4612   15.7375 N   0  0  0  0  0  0  0  0  0  0  0  0
    5.3549   -9.6322   18.3190 C   0  0  0  0  0  0  0  0  0  0  0  0
   10.3704   -4.9638   18.6510 C   0  0  0  0  0  0  0  0  0  0  0  0
    5.5935   -8.6419   17.4234 C   0  0  0  0  0  0  0  0  0  0  0  0
   13.0726   -4.6648   23.3394 O   0  0  0  0  0  0  0  0  0  0  0  0
    8.5955   -6.0705   17.3996 C   0  0  0  0  0  0  0  0  0  0  0  0
    4.6223   -8.3832   16.5030 C   0  0  0  0  0  0  0  0  0  0  0  0
   12.4690   -5.2624   19.9024 C   0  0  0  0  0  0  0  0  0  0  0  0
    3.2548   -9.9919   17.4189 C   0  0  0  0  0  0  0  0  0  0  0  0
   12.4767   -4.7393   22.1790 C   0  0  0  0  0  0  0  0  0  0  0  0
    7.8593   -5.3772   15.3569 N   0  0  0  0  0  0  0  0  0  0  0  0
    7.4412   -6.9038   16.9283 C   0  0  0  0  0  0  0  0  0  0  0  0
  1 21  4  0
  1 23  4  0
  2  5  1  0
  2 13  4  0
  2 16  4  0
  3  6  4  0
  3  7  4  0
  4 13  4  0
  4 19  4  0
  4 24  4  0
  6 23  4  0
  7 16  1  0
  7 21  4  0
  8 18  1  0
  9 20  4  0
  9 22  4  0
 10 17  1  0
 10 25  1  0
 11 16  4  0
 11 19  4  0
 12 15  4  0
 12 22  4  0
 14 24  4  0
 14 25  4  0
 15 17  4  0
 17 20  4  0
 18 23  1  0
 19 25  4  0
M  END
$$$$

 Created by Python create_sdf_string function

 25 28  0  0  0  0  0  0  0  0999 V2000
   13.1533   -5.2399   21.0682 C   0  0  0  0  0  0  0  0  0  0  0  0
   10.4729   -4.0295   17.6135 C   0  0  0  0  0  0  0  0  0  0  0  0
   10.4789   -4.3641   20.9564 C   0  0  0  0  0  0  0  0  0  0  0  0
    8.7421   -5.1412   16.3650 C   0  0  0  0  0  0  0  0  0  0  0  0
   11.4353   -2.9204   17.8044 C   0  0  0  0  0  0  0  0  0  0  0  0
   11.1529   -4.3028   22.1277 C   0  0  0  0  0  0  0  0  0  0  0  0
   11.1290   -4.8502   19.8052 C   0  0  0  0  0  0  0  0  0  0  0  0
   12.4329   -4.2159   24.4224 C   0  0  0  0  0  0  0  0  0  0  0  0
    3.4740   -9.0387   16.5022 C   0  0  0  0  0  0  0  0  0  0  0  0
    6.8384   -7.9290   17.5282 N   0  0  0  0  0  0  0  0  0  0  0  0
    9.4126   -5.9853   18.4899 C   0  0  0  0  0  0  0  0  0  0  0  0
    4.2064  -10.3242   18.3302 C   0  0  0  0  0  0  0  0  0  0  0  0
    9.6599   -4.1551   16.4796 N   0  0  0  0  0  0  0  0  0  0  0  0
    7.0644   -6.4612   15.7375 N   0  0  0  0  0  0  0  0  0  0  0  0
    5.3549   -9.6322   18.3190 C   0  0  0  0  0  0  0  0  0  0  0  0
   10.3704   -4.9638   18.6510 C   0  0  0  0  0  0  0  0  0  0  0  0
    5.5935   -8.6419   17.4234 C   0  0  0  0  0  0  0  0  0  0  0  0
   13.0726   -4.6648   23.3394 O   0  0  0  0  0  0  0  0  0  0  0  0
    8.5955   -6.0705   17.3996 C   0  0  0  0  0  0  0  0  0  0  0  0
    4.6223   -8.3832   16.5030 C   0  0  0  0  0  0  0  0  0  0  0  0
   12.4690   -5.2624   19.9024 C   0  0  0  0  0  0  0  0  0  0  0  0
    3.2548   -9.9919   17.4189 C   0  0  0  0  0  0  0  0  0  0  0  0
   12.4767   -4.7393   22.1790 C   0  0  0  0  0  0  0  0  0  0  0  0
    7.8593   -5.3772   15.3569 N   0  0  0  0  0  0  0  0  0  0  0  0
    7.4412   -6.9038   16.9283 C   0  0  0  0  0  0  0  0  0  0  0  0
  1 21  4  0
  1 23  4  0
  2  5  1  0
  2 13  4  0
  2 16  4  0
  3  6  4  0
  3  7  4  0
  4 13  4  0
  4 19  4  0
  4 24  4  0
  6 23  4  0
  7 16  1  0
  7 21  4  0
  8 18  1  0
  9 20  4  0
  9 22  4  0
 10 17  1  0
 10 25  1  0
 11 16  4  0
 11 19  4  0
 12 15  4  0
 12 22  4  0
 14 24  4  0
 14 25  4  0
 15 17  4  0
 17 20  4  0
 18 23  1  0
 19 25  4  0
M  END
$$$$

 Created by Python create_sdf_string function

 25 28  0  0  0  0  0  0  0  0999 V2000
   13.1533   -5.2399   21.0682 C   0  0  0  0  0  0  0  0  0  0  0  0
   10.4729   -4.0295   17.6135 C   0  0  0  0  0  0  0  0  0  0  0  0
   10.4789   -4.3641   20.9564 C   0  0  0  0  0  0  0  0  0  0  0  0
    8.7421   -5.1412   16.3650 C   0  0  0  0  0  0  0  0  0  0  0  0
   11.4353   -2.9204   17.8044 C   0  0  0  0  0  0  0  0  0  0  0  0
   11.1529   -4.3028   22.1277 C   0  0  0  0  0  0  0  0  0  0  0  0
   11.1290   -4.8502   19.8052 C   0  0  0  0  0  0  0  0  0  0  0  0
   12.4329   -4.2159   24.4224 C   0  0  0  0  0  0  0  0  0  0  0  0
    3.4740   -9.0387   16.5022 C   0  0  0  0  0  0  0  0  0  0  0  0
    6.8384   -7.9290   17.5282 N   0  0  0  0  0  0  0  0  0  0  0  0
    9.4126   -5.9853   18.4899 C   0  0  0  0  0  0  0  0  0  0  0  0
    4.2064  -10.3242   18.3302 C   0  0  0  0  0  0  0  0  0  0  0  0
    9.6599   -4.1551   16.4796 N   0  0  0  0  0  0  0  0  0  0  0  0
    7.0644   -6.4612   15.7375 N   0  0  0  0  0  0  0  0  0  0  0  0
    5.3549   -9.6322   18.3190 C   0  0  0  0  0  0  0  0  0  0  0  0
   10.3704   -4.9638   18.6510 C   0  0  0  0  0  0  0  0  0  0  0  0
    5.5935   -8.6419   17.4234 C   0  0  0  0  0  0  0  0  0  0  0  0
   13.0726   -4.6648   23.3394 O   0  0  0  0  0  0  0  0  0  0  0  0
    8.5955   -6.0705   17.3996 C   0  0  0  0  0  0  0  0  0  0  0  0
    4.6223   -8.3832   16.5030 C   0  0  0  0  0  0  0  0  0  0  0  0
   12.4690   -5.2624   19.9024 C   0  0  0  0  0  0  0  0  0  0  0  0
    3.2548   -9.9919   17.4189 C   0  0  0  0  0  0  0  0  0  0  0  0
   12.4767   -4.7393   22.1790 C   0  0  0  0  0  0  0  0  0  0  0  0
    7.8593   -5.3772   15.3569 N   0  0  0  0  0  0  0  0  0  0  0  0
    7.4412   -6.9038   16.9283 C   0  0  0  0  0  0  0  0  0  0  0  0
  1 21  4  0
  1 23  4  0
  2  5  1  0
  2 13  4  0
  2 16  4  0
  3  6  4  0
  3  7  4  0
  4 13  4  0
  4 19  4  0
  4 24  4  0
  6 23  4  0
  7 16  1  0
  7 21  4  0
  8 18  1  0
  9 20  4  0
  9 22  4  0
 10 17  1  0
 10 25  1  0
 11 16  4  0
 11 19  4  0
 12 15  4  0
 12 22  4  0
 14 24  4  0
 14 25  4  0
 15 17  4  0
 17 20  4  0
 18 23  1  0
 19 25  4  0
M  END
$$$$

 Created by Python create_sdf_string function

 25 28  0  0  0  0  0  0  0  0999 V2000
   13.1533   -5.2399   21.0682 C   0  0  0  0  0  0  0  0  0  0  0  0
   10.4729   -4.0295   17.6135 C   0  0  0  0  0  0  0  0  0  0  0  0
   10.4789   -4.3641   20.9564 C   0  0  0  0  0  0  0  0  0  0  0  0
    8.7421   -5.1412   16.3650 C   0  0  0  0  0  0  0  0  0  0  0  0
   11.4353   -2.9204   17.8044 C   0  0  0  0  0  0  0  0  0  0  0  0
   11.1529   -4.3028   22.1277 C   0  0  0  0  0  0  0  0  0  0  0  0
   11.1290   -4.8502   19.8052 C   0  0  0  0  0  0  0  0  0  0  0  0
   12.4329   -4.2159   24.4224 C   0  0  0  0  0  0  0  0  0  0  0  0
    3.4740   -9.0387   16.5022 C   0  0  0  0  0  0  0  0  0  0  0  0
    6.8384   -7.9290   17.5282 N   0  0  0  0  0  0  0  0  0  0  0  0
    9.4126   -5.9853   18.4899 C   0  0  0  0  0  0  0  0  0  0  0  0
    4.2064  -10.3242   18.3302 C   0  0  0  0  0  0  0  0  0  0  0  0
    9.6599   -4.1551   16.4796 N   0  0  0  0  0  0  0  0  0  0  0  0
    7.0644   -6.4612   15.7375 N   0  0  0  0  0  0  0  0  0  0  0  0
    5.3549   -9.6322   18.3190 C   0  0  0  0  0  0  0  0  0  0  0  0
   10.3704   -4.9638   18.6510 C   0  0  0  0  0  0  0  0  0  0  0  0
    5.5935   -8.6419   17.4234 C   0  0  0  0  0  0  0  0  0  0  0  0
   13.0726   -4.6648   23.3394 O   0  0  0  0  0  0  0  0  0  0  0  0
    8.5955   -6.0705   17.3996 C   0  0  0  0  0  0  0  0  0  0  0  0
    4.6223   -8.3832   16.5030 C   0  0  0  0  0  0  0  0  0  0  0  0
   12.4690   -5.2624   19.9024 C   0  0  0  0  0  0  0  0  0  0  0  0
    3.2548   -9.9919   17.4189 C   0  0  0  0  0  0  0  0  0  0  0  0
   12.4767   -4.7393   22.1790 C   0  0  0  0  0  0  0  0  0  0  0  0
    7.8593   -5.3772   15.3569 N   0  0  0  0  0  0  0  0  0  0  0  0
    7.4412   -6.9038   16.9283 C   0  0  0  0  0  0  0  0  0  0  0  0
  1 21  4  0
  1 23  4  0
  2  5  1  0
  2 13  4  0
  2 16  4  0
  3  6  4  0
  3  7  4  0
  4 13  4  0
  4 19  4  0
  4 24  4  0
  6 23  4  0
  7 16  1  0
  7 21  4  0
  8 18  1  0
  9 20  4  0
  9 22  4  0
 10 17  1  0
 10 25  1  0
 11 16  4  0
 11 19  4  0
 12 15  4  0
 12 22  4  0
 14 24  4  0
 14 25  4  0
 15 17  4  0
 17 20  4  0
 18 23  1  0
 19 25  4  0
M  END
$$$$

 Created by Python create_sdf_string function

 25 28  0  0  0  0  0  0  0  0999 V2000
   13.1533   -5.2399   21.0682 C   0  0  0  0  0  0  0  0  0  0  0  0
   10.4729   -4.0295   17.6135 C   0  0  0  0  0  0  0  0  0  0  0  0
   10.4789   -4.3641   20.9564 C   0  0  0  0  0  0  0  0  0  0  0  0
    8.7421   -5.1412   16.3650 C   0  0  0  0  0  0  0  0  0  0  0  0
   11.4353   -2.9204   17.8044 C   0  0  0  0  0  0  0  0  0  0  0  0
   11.1529   -4.3028   22.1277 C   0  0  0  0  0  0  0  0  0  0  0  0
   11.1290   -4.8502   19.8052 C   0  0  0  0  0  0  0  0  0  0  0  0
   12.4329   -4.2159   24.4224 C   0  0  0  0  0  0  0  0  0  0  0  0
    3.4740   -9.0387   16.5022 C   0  0  0  0  0  0  0  0  0  0  0  0
    6.8384   -7.9290   17.5282 N   0  0  0  0  0  0  0  0  0  0  0  0
    9.4126   -5.9853   18.4899 C   0  0  0  0  0  0  0  0  0  0  0  0
    4.2064  -10.3242   18.3302 C   0  0  0  0  0  0  0  0  0  0  0  0
    9.6599   -4.1551   16.4796 N   0  0  0  0  0  0  0  0  0  0  0  0
    7.0644   -6.4612   15.7375 N   0  0  0  0  0  0  0  0  0  0  0  0
    5.3549   -9.6322   18.3190 C   0  0  0  0  0  0  0  0  0  0  0  0
   10.3704   -4.9638   18.6510 C   0  0  0  0  0  0  0  0  0  0  0  0
    5.5935   -8.6419   17.4234 C   0  0  0  0  0  0  0  0  0  0  0  0
   13.0726   -4.6648   23.3394 O   0  0  0  0  0  0  0  0  0  0  0  0
    8.5955   -6.0705   17.3996 C   0  0  0  0  0  0  0  0  0  0  0  0
    4.6223   -8.3832   16.5030 C   0  0  0  0  0  0  0  0  0  0  0  0
   12.4690   -5.2624   19.9024 C   0  0  0  0  0  0  0  0  0  0  0  0
    3.2548   -9.9919   17.4189 C   0  0  0  0  0  0  0  0  0  0  0  0
   12.4767   -4.7393   22.1790 C   0  0  0  0  0  0  0  0  0  0  0  0
    7.8593   -5.3772   15.3569 N   0  0  0  0  0  0  0  0  0  0  0  0
    7.4412   -6.9038   16.9283 C   0  0  0  0  0  0  0  0  0  0  0  0
  1 21  4  0
  1 23  4  0
  2  5  1  0
  2 13  4  0
  2 16  4  0
  3  6  4  0
  3  7  4  0
  4 13  4  0
  4 19  4  0
  4 24  4  0
  6 23  4  0
  7 16  1  0
  7 21  4  0
  8 18  1  0
  9 20  4  0
  9 22  4  0
 10 17  1  0
 10 25  1  0
 11 16  4  0
 11 19  4  0
 12 15  4  0
 12 22  4  0
 14 24  4  0
 14 25  4  0
 15 17  4  0
 17 20  4  0
 18 23  1  0
 19 25  4  0
M  END
$$$$

 Created by Python create_sdf_string function

 25 28  0  0  0  0  0  0  0  0999 V2000
   13.1533   -5.2399   21.0682 C   0  0  0  0  0  0  0  0  0  0  0  0
   10.4729   -4.0295   17.6135 C   0  0  0  0  0  0  0  0  0  0  0  0
   10.4789   -4.3641   20.9564 C   0  0  0  0  0  0  0  0  0  0  0  0
    8.7421   -5.1412   16.3650 C   0  0  0  0  0  0  0  0  0  0  0  0
   11.4353   -2.9204   17.8044 C   0  0  0  0  0  0  0  0  0  0  0  0
   11.1529   -4.3028   22.1277 C   0  0  0  0  0  0  0  0  0  0  0  0
   11.1290   -4.8502   19.8052 C   0  0  0  0  0  0  0  0  0  0  0  0
   12.4329   -4.2159   24.4224 C   0  0  0  0  0  0  0  0  0  0  0  0
    3.4740   -9.0387   16.5022 C   0  0  0  0  0  0  0  0  0  0  0  0
    6.8384   -7.9290   17.5282 N   0  0  0  0  0  0  0  0  0  0  0  0
    9.4126   -5.9853   18.4899 C   0  0  0  0  0  0  0  0  0  0  0  0
    4.2064  -10.3242   18.3302 C   0  0  0  0  0  0  0  0  0  0  0  0
    9.6599   -4.1551   16.4796 N   0  0  0  0  0  0  0  0  0  0  0  0
    7.0644   -6.4612   15.7375 N   0  0  0  0  0  0  0  0  0  0  0  0
    5.3549   -9.6322   18.3190 C   0  0  0  0  0  0  0  0  0  0  0  0
   10.3704   -4.9638   18.6510 C   0  0  0  0  0  0  0  0  0  0  0  0
    5.5935   -8.6419   17.4234 C   0  0  0  0  0  0  0  0  0  0  0  0
   13.0726   -4.6648   23.3394 O   0  0  0  0  0  0  0  0  0  0  0  0
    8.5955   -6.0705   17.3996 C   0  0  0  0  0  0  0  0  0  0  0  0
    4.6223   -8.3832   16.5030 C   0  0  0  0  0  0  0  0  0  0  0  0
   12.4690   -5.2624   19.9024 C   0  0  0  0  0  0  0  0  0  0  0  0
    3.2548   -9.9919   17.4189 C   0  0  0  0  0  0  0  0  0  0  0  0
   12.4767   -4.7393   22.1790 C   0  0  0  0  0  0  0  0  0  0  0  0
    7.8593   -5.3772   15.3569 N   0  0  0  0  0  0  0  0  0  0  0  0
    7.4412   -6.9038   16.9283 C   0  0  0  0  0  0  0  0  0  0  0  0
  1 21  4  0
  1 23  4  0
  2  5  1  0
  2 13  4  0
  2 16  4  0
  3  6  4  0
  3  7  4  0
  4 13  4  0
  4 19  4  0
  4 24  4  0
  6 23  4  0
  7 16  1  0
  7 21  4  0
  8 18  1  0
  9 20  4  0
  9 22  4  0
 10 17  1  0
 10 25  1  0
 11 16  4  0
 11 19  4  0
 12 15  4  0
 12 22  4  0
 14 24  4  0
 14 25  4  0
 15 17  4  0
 17 20  4  0
 18 23  1  0
 19 25  4  0
M  END
$$$$

 Created by Python create_sdf_string function

 25 28  0  0  0  0  0  0  0  0999 V2000
   13.1533   -5.2399   21.0682 C   0  0  0  0  0  0  0  0  0  0  0  0
   10.4729   -4.0295   17.6135 C   0  0  0  0  0  0  0  0  0  0  0  0
   10.4789   -4.3641   20.9564 C   0  0  0  0  0  0  0  0  0  0  0  0
    8.7421   -5.1412   16.3650 C   0  0  0  0  0  0  0  0  0  0  0  0
   11.4353   -2.9204   17.8044 C   0  0  0  0  0  0  0  0  0  0  0  0
   11.1529   -4.3028   22.1277 C   0  0  0  0  0  0  0  0  0  0  0  0
   11.1290   -4.8502   19.8052 C   0  0  0  0  0  0  0  0  0  0  0  0
   12.4329   -4.2159   24.4224 C   0  0  0  0  0  0  0  0  0  0  0  0
    3.4740   -9.0387   16.5022 C   0  0  0  0  0  0  0  0  0  0  0  0
    6.8384   -7.9290   17.5282 N   0  0  0  0  0  0  0  0  0  0  0  0
    9.4126   -5.9853   18.4899 C   0  0  0  0  0  0  0  0  0  0  0  0
    4.2064  -10.3242   18.3302 C   0  0  0  0  0  0  0  0  0  0  0  0
    9.6599   -4.1551   16.4796 N   0  0  0  0  0  0  0  0  0  0  0  0
    7.0644   -6.4612   15.7375 N   0  0  0  0  0  0  0  0  0  0  0  0
    5.3549   -9.6322   18.3190 C   0  0  0  0  0  0  0  0  0  0  0  0
   10.3704   -4.9638   18.6510 C   0  0  0  0  0  0  0  0  0  0  0  0
    5.5935   -8.6419   17.4234 C   0  0  0  0  0  0  0  0  0  0  0  0
   13.0726   -4.6648   23.3394 O   0  0  0  0  0  0  0  0  0  0  0  0
    8.5955   -6.0705   17.3996 C   0  0  0  0  0  0  0  0  0  0  0  0
    4.6223   -8.3832   16.5030 C   0  0  0  0  0  0  0  0  0  0  0  0
   12.4690   -5.2624   19.9024 C   0  0  0  0  0  0  0  0  0  0  0  0
    3.2548   -9.9919   17.4189 C   0  0  0  0  0  0  0  0  0  0  0  0
   12.4767   -4.7393   22.1790 C   0  0  0  0  0  0  0  0  0  0  0  0
    7.8593   -5.3772   15.3569 N   0  0  0  0  0  0  0  0  0  0  0  0
    7.4412   -6.9038   16.9283 C   0  0  0  0  0  0  0  0  0  0  0  0
  1 21  4  0
  1 23  4  0
  2  5  1  0
  2 13  4  0
  2 16  4  0
  3  6  4  0
  3  7  4  0
  4 13  4  0
  4 19  4  0
  4 24  4  0
  6 23  4  0
  7 16  1  0
  7 21  4  0
  8 18  1  0
  9 20  4  0
  9 22  4  0
 10 17  1  0
 10 25  1  0
 11 16  4  0
 11 19  4  0
 12 15  4  0
 12 22  4  0
 14 24  4  0
 14 25  4  0
 15 17  4  0
 17 20  4  0
 18 23  1  0
 19 25  4  0
M  END
$$$$

 Created by Python create_sdf_string function

 25 28  0  0  0  0  0  0  0  0999 V2000
   13.1533   -5.2399   21.0682 C   0  0  0  0  0  0  0  0  0  0  0  0
   10.4729   -4.0295   17.6135 C   0  0  0  0  0  0  0  0  0  0  0  0
   10.4789   -4.3641   20.9564 C   0  0  0  0  0  0  0  0  0  0  0  0
    8.7421   -5.1412   16.3650 C   0  0  0  0  0  0  0  0  0  0  0  0
   11.4353   -2.9204   17.8044 C   0  0  0  0  0  0  0  0  0  0  0  0
   11.1529   -4.3028   22.1277 C   0  0  0  0  0  0  0  0  0  0  0  0
   11.1290   -4.8502   19.8052 C   0  0  0  0  0  0  0  0  0  0  0  0
   12.4329   -4.2159   24.4224 C   0  0  0  0  0  0  0  0  0  0  0  0
    3.4740   -9.0387   16.5022 C   0  0  0  0  0  0  0  0  0  0  0  0
    6.8384   -7.9290   17.5282 N   0  0  0  0  0  0  0  0  0  0  0  0
    9.4126   -5.9853   18.4899 C   0  0  0  0  0  0  0  0  0  0  0  0
    4.2064  -10.3242   18.3302 C   0  0  0  0  0  0  0  0  0  0  0  0
    9.6599   -4.1551   16.4796 N   0  0  0  0  0  0  0  0  0  0  0  0
    7.0644   -6.4612   15.7375 N   0  0  0  0  0  0  0  0  0  0  0  0
    5.3549   -9.6322   18.3190 C   0  0  0  0  0  0  0  0  0  0  0  0
   10.3704   -4.9638   18.6510 C   0  0  0  0  0  0  0  0  0  0  0  0
    5.5935   -8.6419   17.4234 C   0  0  0  0  0  0  0  0  0  0  0  0
   13.0726   -4.6648   23.3394 O   0  0  0  0  0  0  0  0  0  0  0  0
    8.5955   -6.0705   17.3996 C   0  0  0  0  0  0  0  0  0  0  0  0
    4.6223   -8.3832   16.5030 C   0  0  0  0  0  0  0  0  0  0  0  0
   12.4690   -5.2624   19.9024 C   0  0  0  0  0  0  0  0  0  0  0  0
    3.2548   -9.9919   17.4189 C   0  0  0  0  0  0  0  0  0  0  0  0
   12.4767   -4.7393   22.1790 C   0  0  0  0  0  0  0  0  0  0  0  0
    7.8593   -5.3772   15.3569 N   0  0  0  0  0  0  0  0  0  0  0  0
    7.4412   -6.9038   16.9283 C   0  0  0  0  0  0  0  0  0  0  0  0
  1 21  4  0
  1 23  4  0
  2  5  1  0
  2 13  4  0
  2 16  4  0
  3  6  4  0
  3  7  4  0
  4 13  4  0
  4 19  4  0
  4 24  4  0
  6 23  4  0
  7 16  1  0
  7 21  4  0
  8 18  1  0
  9 20  4  0
  9 22  4  0
 10 17  1  0
 10 25  1  0
 11 16  4  0
 11 19  4  0
 12 15  4  0
 12 22  4  0
 14 24  4  0
 14 25  4  0
 15 17  4  0
 17 20  4  0
 18 23  1  0
 19 25  4  0
M  END
$$$$

 Created by Python create_sdf_string function

 25 28  0  0  0  0  0  0  0  0999 V2000
   13.1533   -5.2399   21.0682 C   0  0  0  0  0  0  0  0  0  0  0  0
   10.4729   -4.0295   17.6135 C   0  0  0  0  0  0  0  0  0  0  0  0
   10.4789   -4.3641   20.9564 C   0  0  0  0  0  0  0  0  0  0  0  0
    8.7421   -5.1412   16.3650 C   0  0  0  0  0  0  0  0  0  0  0  0
   11.4353   -2.9204   17.8044 C   0  0  0  0  0  0  0  0  0  0  0  0
   11.1529   -4.3028   22.1277 C   0  0  0  0  0  0  0  0  0  0  0  0
   11.1290   -4.8502   19.8052 C   0  0  0  0  0  0  0  0  0  0  0  0
   12.4329   -4.2159   24.4224 C   0  0  0  0  0  0  0  0  0  0  0  0
    3.4740   -9.0387   16.5022 C   0  0  0  0  0  0  0  0  0  0  0  0
    6.8384   -7.9290   17.5282 N   0  0  0  0  0  0  0  0  0  0  0  0
    9.4126   -5.9853   18.4899 C   0  0  0  0  0  0  0  0  0  0  0  0
    4.2064  -10.3242   18.3302 C   0  0  0  0  0  0  0  0  0  0  0  0
    9.6599   -4.1551   16.4796 N   0  0  0  0  0  0  0  0  0  0  0  0
    7.0644   -6.4612   15.7375 N   0  0  0  0  0  0  0  0  0  0  0  0
    5.3549   -9.6322   18.3190 C   0  0  0  0  0  0  0  0  0  0  0  0
   10.3704   -4.9638   18.6510 C   0  0  0  0  0  0  0  0  0  0  0  0
    5.5935   -8.6419   17.4234 C   0  0  0  0  0  0  0  0  0  0  0  0
   13.0726   -4.6648   23.3394 O   0  0  0  0  0  0  0  0  0  0  0  0
    8.5955   -6.0705   17.3996 C   0  0  0  0  0  0  0  0  0  0  0  0
    4.6223   -8.3832   16.5030 C   0  0  0  0  0  0  0  0  0  0  0  0
   12.4690   -5.2624   19.9024 C   0  0  0  0  0  0  0  0  0  0  0  0
    3.2548   -9.9919   17.4189 C   0  0  0  0  0  0  0  0  0  0  0  0
   12.4767   -4.7393   22.1790 C   0  0  0  0  0  0  0  0  0  0  0  0
    7.8593   -5.3772   15.3569 N   0  0  0  0  0  0  0  0  0  0  0  0
    7.4412   -6.9038   16.9283 C   0  0  0  0  0  0  0  0  0  0  0  0
  1 21  4  0
  1 23  4  0
  2  5  1  0
  2 13  4  0
  2 16  4  0
  3  6  4  0
  3  7  4  0
  4 13  4  0
  4 19  4  0
  4 24  4  0
  6 23  4  0
  7 16  1  0
  7 21  4  0
  8 18  1  0
  9 20  4  0
  9 22  4  0
 10 17  1  0
 10 25  1  0
 11 16  4  0
 11 19  4  0
 12 15  4  0
 12 22  4  0
 14 24  4  0
 14 25  4  0
 15 17  4  0
 17 20  4  0
 18 23  1  0
 19 25  4  0
M  END
$$$$

 Created by Python create_sdf_string function

 25 28  0  0  0  0  0  0  0  0999 V2000
   13.1533   -5.2399   21.0682 C   0  0  0  0  0  0  0  0  0  0  0  0
   10.4729   -4.0295   17.6135 C   0  0  0  0  0  0  0  0  0  0  0  0
   10.4789   -4.3641   20.9564 C   0  0  0  0  0  0  0  0  0  0  0  0
    8.7421   -5.1412   16.3650 C   0  0  0  0  0  0  0  0  0  0  0  0
   11.4353   -2.9204   17.8044 C   0  0  0  0  0  0  0  0  0  0  0  0
   11.1529   -4.3028   22.1277 C   0  0  0  0  0  0  0  0  0  0  0  0
   11.1290   -4.8502   19.8052 C   0  0  0  0  0  0  0  0  0  0  0  0
   12.4329   -4.2159   24.4224 C   0  0  0  0  0  0  0  0  0  0  0  0
    3.4740   -9.0387   16.5022 C   0  0  0  0  0  0  0  0  0  0  0  0
    6.8384   -7.9290   17.5282 N   0  0  0  0  0  0  0  0  0  0  0  0
    9.4126   -5.9853   18.4899 C   0  0  0  0  0  0  0  0  0  0  0  0
    4.2064  -10.3242   18.3302 C   0  0  0  0  0  0  0  0  0  0  0  0
    9.6599   -4.1551   16.4796 N   0  0  0  0  0  0  0  0  0  0  0  0
    7.0644   -6.4612   15.7375 N   0  0  0  0  0  0  0  0  0  0  0  0
    5.3549   -9.6322   18.3190 C   0  0  0  0  0  0  0  0  0  0  0  0
   10.3704   -4.9638   18.6510 C   0  0  0  0  0  0  0  0  0  0  0  0
    5.5935   -8.6419   17.4234 C   0  0  0  0  0  0  0  0  0  0  0  0
   13.0726   -4.6648   23.3394 O   0  0  0  0  0  0  0  0  0  0  0  0
    8.5955   -6.0705   17.3996 C   0  0  0  0  0  0  0  0  0  0  0  0
    4.6223   -8.3832   16.5030 C   0  0  0  0  0  0  0  0  0  0  0  0
   12.4690   -5.2624   19.9024 C   0  0  0  0  0  0  0  0  0  0  0  0
    3.2548   -9.9919   17.4189 C   0  0  0  0  0  0  0  0  0  0  0  0
   12.4767   -4.7393   22.1790 C   0  0  0  0  0  0  0  0  0  0  0  0
    7.8593   -5.3772   15.3569 N   0  0  0  0  0  0  0  0  0  0  0  0
    7.4412   -6.9038   16.9283 C   0  0  0  0  0  0  0  0  0  0  0  0
  1 21  4  0
  1 23  4  0
  2  5  1  0
  2 13  4  0
  2 16  4  0
  3  6  4  0
  3  7  4  0
  4 13  4  0
  4 19  4  0
  4 24  4  0
  6 23  4  0
  7 16  1  0
  7 21  4  0
  8 18  1  0
  9 20  4  0
  9 22  4  0
 10 17  1  0
 10 25  1  0
 11 16  4  0
 11 19  4  0
 12 15  4  0
 12 22  4  0
 14 24  4  0
 14 25  4  0
 15 17  4  0
 17 20  4  0
 18 23  1  0
 19 25  4  0
M  END
$$$$

 Created by Python create_sdf_string function

 25 28  0  0  0  0  0  0  0  0999 V2000
   13.1533   -5.2399   21.0682 C   0  0  0  0  0  0  0  0  0  0  0  0
   10.4729   -4.0295   17.6135 C   0  0  0  0  0  0  0  0  0  0  0  0
   10.4789   -4.3641   20.9564 C   0  0  0  0  0  0  0  0  0  0  0  0
    8.7421   -5.1412   16.3650 C   0  0  0  0  0  0  0  0  0  0  0  0
   11.4353   -2.9204   17.8044 C   0  0  0  0  0  0  0  0  0  0  0  0
   11.1529   -4.3028   22.1277 C   0  0  0  0  0  0  0  0  0  0  0  0
   11.1290   -4.8502   19.8052 C   0  0  0  0  0  0  0  0  0  0  0  0
   12.4329   -4.2159   24.4224 C   0  0  0  0  0  0  0  0  0  0  0  0
    3.4740   -9.0387   16.5022 C   0  0  0  0  0  0  0  0  0  0  0  0
    6.8384   -7.9290   17.5282 N   0  0  0  0  0  0  0  0  0  0  0  0
    9.4126   -5.9853   18.4899 C   0  0  0  0  0  0  0  0  0  0  0  0
    4.2064  -10.3242   18.3302 C   0  0  0  0  0  0  0  0  0  0  0  0
    9.6599   -4.1551   16.4796 N   0  0  0  0  0  0  0  0  0  0  0  0
    7.0644   -6.4612   15.7375 N   0  0  0  0  0  0  0  0  0  0  0  0
    5.3549   -9.6322   18.3190 C   0  0  0  0  0  0  0  0  0  0  0  0
   10.3704   -4.9638   18.6510 C   0  0  0  0  0  0  0  0  0  0  0  0
    5.5935   -8.6419   17.4234 C   0  0  0  0  0  0  0  0  0  0  0  0
   13.0726   -4.6648   23.3394 O   0  0  0  0  0  0  0  0  0  0  0  0
    8.5955   -6.0705   17.3996 C   0  0  0  0  0  0  0  0  0  0  0  0
    4.6223   -8.3832   16.5030 C   0  0  0  0  0  0  0  0  0  0  0  0
   12.4690   -5.2624   19.9024 C   0  0  0  0  0  0  0  0  0  0  0  0
    3.2548   -9.9919   17.4189 C   0  0  0  0  0  0  0  0  0  0  0  0
   12.4767   -4.7393   22.1790 C   0  0  0  0  0  0  0  0  0  0  0  0
    7.8593   -5.3772   15.3569 N   0  0  0  0  0  0  0  0  0  0  0  0
    7.4412   -6.9038   16.9283 C   0  0  0  0  0  0  0  0  0  0  0  0
  1 21  4  0
  1 23  4  0
  2  5  1  0
  2 13  4  0
  2 16  4  0
  3  6  4  0
  3  7  4  0
  4 13  4  0
  4 19  4  0
  4 24  4  0
  6 23  4  0
  7 16  1  0
  7 21  4  0
  8 18  1  0
  9 20  4  0
  9 22  4  0
 10 17  1  0
 10 25  1  0
 11 16  4  0
 11 19  4  0
 12 15  4  0
 12 22  4  0
 14 24  4  0
 14 25  4  0
 15 17  4  0
 17 20  4  0
 18 23  1  0
 19 25  4  0
M  END
$$$$

 Created by Python create_sdf_string function

 25 28  0  0  0  0  0  0  0  0999 V2000
   13.1533   -5.2399   21.0682 C   0  0  0  0  0  0  0  0  0  0  0  0
   10.4729   -4.0295   17.6135 C   0  0  0  0  0  0  0  0  0  0  0  0
   10.4789   -4.3641   20.9564 C   0  0  0  0  0  0  0  0  0  0  0  0
    8.7421   -5.1412   16.3650 C   0  0  0  0  0  0  0  0  0  0  0  0
   11.4353   -2.9204   17.8044 C   0  0  0  0  0  0  0  0  0  0  0  0
   11.1529   -4.3028   22.1277 C   0  0  0  0  0  0  0  0  0  0  0  0
   11.1290   -4.8502   19.8052 C   0  0  0  0  0  0  0  0  0  0  0  0
   12.4329   -4.2159   24.4224 C   0  0  0  0  0  0  0  0  0  0  0  0
    3.4740   -9.0387   16.5022 C   0  0  0  0  0  0  0  0  0  0  0  0
    6.8384   -7.9290   17.5282 N   0  0  0  0  0  0  0  0  0  0  0  0
    9.4126   -5.9853   18.4899 C   0  0  0  0  0  0  0  0  0  0  0  0
    4.2064  -10.3242   18.3302 C   0  0  0  0  0  0  0  0  0  0  0  0
    9.6599   -4.1551   16.4796 N   0  0  0  0  0  0  0  0  0  0  0  0
    7.0644   -6.4612   15.7375 N   0  0  0  0  0  0  0  0  0  0  0  0
    5.3549   -9.6322   18.3190 C   0  0  0  0  0  0  0  0  0  0  0  0
   10.3704   -4.9638   18.6510 C   0  0  0  0  0  0  0  0  0  0  0  0
    5.5935   -8.6419   17.4234 C   0  0  0  0  0  0  0  0  0  0  0  0
   13.0726   -4.6648   23.3394 O   0  0  0  0  0  0  0  0  0  0  0  0
    8.5955   -6.0705   17.3996 C   0  0  0  0  0  0  0  0  0  0  0  0
    4.6223   -8.3832   16.5030 C   0  0  0  0  0  0  0  0  0  0  0  0
   12.4690   -5.2624   19.9024 C   0  0  0  0  0  0  0  0  0  0  0  0
    3.2548   -9.9919   17.4189 C   0  0  0  0  0  0  0  0  0  0  0  0
   12.4767   -4.7393   22.1790 C   0  0  0  0  0  0  0  0  0  0  0  0
    7.8593   -5.3772   15.3569 N   0  0  0  0  0  0  0  0  0  0  0  0
    7.4412   -6.9038   16.9283 C   0  0  0  0  0  0  0  0  0  0  0  0
  1 21  4  0
  1 23  4  0
  2  5  1  0
  2 13  4  0
  2 16  4  0
  3  6  4  0
  3  7  4  0
  4 13  4  0
  4 19  4  0
  4 24  4  0
  6 23  4  0
  7 16  1  0
  7 21  4  0
  8 18  1  0
  9 20  4  0
  9 22  4  0
 10 17  1  0
 10 25  1  0
 11 16  4  0
 11 19  4  0
 12 15  4  0
 12 22  4  0
 14 24  4  0
 14 25  4  0
 15 17  4  0
 17 20  4  0
 18 23  1  0
 19 25  4  0
M  END
$$$$

 Created by Python create_sdf_string function

 25 28  0  0  0  0  0  0  0  0999 V2000
   13.1533   -5.2399   21.0682 C   0  0  0  0  0  0  0  0  0  0  0  0
   10.4729   -4.0295   17.6135 C   0  0  0  0  0  0  0  0  0  0  0  0
   10.4789   -4.3641   20.9564 C   0  0  0  0  0  0  0  0  0  0  0  0
    8.7421   -5.1412   16.3650 C   0  0  0  0  0  0  0  0  0  0  0  0
   11.4353   -2.9204   17.8044 C   0  0  0  0  0  0  0  0  0  0  0  0
   11.1529   -4.3028   22.1277 C   0  0  0  0  0  0  0  0  0  0  0  0
   11.1290   -4.8502   19.8052 C   0  0  0  0  0  0  0  0  0  0  0  0
   12.4329   -4.2159   24.4224 C   0  0  0  0  0  0  0  0  0  0  0  0
    3.4740   -9.0387   16.5022 C   0  0  0  0  0  0  0  0  0  0  0  0
    6.8384   -7.9290   17.5282 N   0  0  0  0  0  0  0  0  0  0  0  0
    9.4126   -5.9853   18.4899 C   0  0  0  0  0  0  0  0  0  0  0  0
    4.2064  -10.3242   18.3302 C   0  0  0  0  0  0  0  0  0  0  0  0
    9.6599   -4.1551   16.4796 N   0  0  0  0  0  0  0  0  0  0  0  0
    7.0644   -6.4612   15.7375 N   0  0  0  0  0  0  0  0  0  0  0  0
    5.3549   -9.6322   18.3190 C   0  0  0  0  0  0  0  0  0  0  0  0
   10.3704   -4.9638   18.6510 C   0  0  0  0  0  0  0  0  0  0  0  0
    5.5935   -8.6419   17.4234 C   0  0  0  0  0  0  0  0  0  0  0  0
   13.0726   -4.6648   23.3394 O   0  0  0  0  0  0  0  0  0  0  0  0
    8.5955   -6.0705   17.3996 C   0  0  0  0  0  0  0  0  0  0  0  0
    4.6223   -8.3832   16.5030 C   0  0  0  0  0  0  0  0  0  0  0  0
   12.4690   -5.2624   19.9024 C   0  0  0  0  0  0  0  0  0  0  0  0
    3.2548   -9.9919   17.4189 C   0  0  0  0  0  0  0  0  0  0  0  0
   12.4767   -4.7393   22.1790 C   0  0  0  0  0  0  0  0  0  0  0  0
    7.8593   -5.3772   15.3569 N   0  0  0  0  0  0  0  0  0  0  0  0
    7.4412   -6.9038   16.9283 C   0  0  0  0  0  0  0  0  0  0  0  0
  1 21  4  0
  1 23  4  0
  2  5  1  0
  2 13  4  0
  2 16  4  0
  3  6  4  0
  3  7  4  0
  4 13  4  0
  4 19  4  0
  4 24  4  0
  6 23  4  0
  7 16  1  0
  7 21  4  0
  8 18  1  0
  9 20  4  0
  9 22  4  0
 10 17  1  0
 10 25  1  0
 11 16  4  0
 11 19  4  0
 12 15  4  0
 12 22  4  0
 14 24  4  0
 14 25  4  0
 15 17  4  0
 17 20  4  0
 18 23  1  0
 19 25  4  0
M  END
$$$$

 Created by Python create_sdf_string function

 25 28  0  0  0  0  0  0  0  0999 V2000
   13.1533   -5.2399   21.0682 C   0  0  0  0  0  0  0  0  0  0  0  0
   10.4729   -4.0295   17.6135 C   0  0  0  0  0  0  0  0  0  0  0  0
   10.4789   -4.3641   20.9564 C   0  0  0  0  0  0  0  0  0  0  0  0
    8.7421   -5.1412   16.3650 C   0  0  0  0  0  0  0  0  0  0  0  0
   11.4353   -2.9204   17.8044 C   0  0  0  0  0  0  0  0  0  0  0  0
   11.1529   -4.3028   22.1277 C   0  0  0  0  0  0  0  0  0  0  0  0
   11.1290   -4.8502   19.8052 C   0  0  0  0  0  0  0  0  0  0  0  0
   12.4329   -4.2159   24.4224 C   0  0  0  0  0  0  0  0  0  0  0  0
    3.4740   -9.0387   16.5022 C   0  0  0  0  0  0  0  0  0  0  0  0
    6.8384   -7.9290   17.5282 N   0  0  0  0  0  0  0  0  0  0  0  0
    9.4126   -5.9853   18.4899 C   0  0  0  0  0  0  0  0  0  0  0  0
    4.2064  -10.3242   18.3302 C   0  0  0  0  0  0  0  0  0  0  0  0
    9.6599   -4.1551   16.4796 N   0  0  0  0  0  0  0  0  0  0  0  0
    7.0644   -6.4612   15.7375 N   0  0  0  0  0  0  0  0  0  0  0  0
    5.3549   -9.6322   18.3190 C   0  0  0  0  0  0  0  0  0  0  0  0
   10.3704   -4.9638   18.6510 C   0  0  0  0  0  0  0  0  0  0  0  0
    5.5935   -8.6419   17.4234 C   0  0  0  0  0  0  0  0  0  0  0  0
   13.0726   -4.6648   23.3394 O   0  0  0  0  0  0  0  0  0  0  0  0
    8.5955   -6.0705   17.3996 C   0  0  0  0  0  0  0  0  0  0  0  0
    4.6223   -8.3832   16.5030 C   0  0  0  0  0  0  0  0  0  0  0  0
   12.4690   -5.2624   19.9024 C   0  0  0  0  0  0  0  0  0  0  0  0
    3.2548   -9.9919   17.4189 C   0  0  0  0  0  0  0  0  0  0  0  0
   12.4767   -4.7393   22.1790 C   0  0  0  0  0  0  0  0  0  0  0  0
    7.8593   -5.3772   15.3569 N   0  0  0  0  0  0  0  0  0  0  0  0
    7.4412   -6.9038   16.9283 C   0  0  0  0  0  0  0  0  0  0  0  0
  1 21  4  0
  1 23  4  0
  2  5  1  0
  2 13  4  0
  2 16  4  0
  3  6  4  0
  3  7  4  0
  4 13  4  0
  4 19  4  0
  4 24  4  0
  6 23  4  0
  7 16  1  0
  7 21  4  0
  8 18  1  0
  9 20  4  0
  9 22  4  0
 10 17  1  0
 10 25  1  0
 11 16  4  0
 11 19  4  0
 12 15  4  0
 12 22  4  0
 14 24  4  0
 14 25  4  0
 15 17  4  0
 17 20  4  0
 18 23  1  0
 19 25  4  0
M  END
$$$$

 Created by Python create_sdf_string function

 25 28  0  0  0  0  0  0  0  0999 V2000
   13.1533   -5.2399   21.0682 C   0  0  0  0  0  0  0  0  0  0  0  0
   10.4729   -4.0295   17.6135 C   0  0  0  0  0  0  0  0  0  0  0  0
   10.4789   -4.3641   20.9564 C   0  0  0  0  0  0  0  0  0  0  0  0
    8.7421   -5.1412   16.3650 C   0  0  0  0  0  0  0  0  0  0  0  0
   11.4353   -2.9204   17.8044 C   0  0  0  0  0  0  0  0  0  0  0  0
   11.1529   -4.3028   22.1277 C   0  0  0  0  0  0  0  0  0  0  0  0
   11.1290   -4.8502   19.8052 C   0  0  0  0  0  0  0  0  0  0  0  0
   12.4329   -4.2159   24.4224 C   0  0  0  0  0  0  0  0  0  0  0  0
    3.4740   -9.0387   16.5022 C   0  0  0  0  0  0  0  0  0  0  0  0
    6.8384   -7.9290   17.5282 N   0  0  0  0  0  0  0  0  0  0  0  0
    9.4126   -5.9853   18.4899 C   0  0  0  0  0  0  0  0  0  0  0  0
    4.2064  -10.3242   18.3302 C   0  0  0  0  0  0  0  0  0  0  0  0
    9.6599   -4.1551   16.4796 N   0  0  0  0  0  0  0  0  0  0  0  0
    7.0644   -6.4612   15.7375 N   0  0  0  0  0  0  0  0  0  0  0  0
    5.3549   -9.6322   18.3190 C   0  0  0  0  0  0  0  0  0  0  0  0
   10.3704   -4.9638   18.6510 C   0  0  0  0  0  0  0  0  0  0  0  0
    5.5935   -8.6419   17.4234 C   0  0  0  0  0  0  0  0  0  0  0  0
   13.0726   -4.6648   23.3394 O   0  0  0  0  0  0  0  0  0  0  0  0
    8.5955   -6.0705   17.3996 C   0  0  0  0  0  0  0  0  0  0  0  0
    4.6223   -8.3832   16.5030 C   0  0  0  0  0  0  0  0  0  0  0  0
   12.4690   -5.2624   19.9024 C   0  0  0  0  0  0  0  0  0  0  0  0
    3.2548   -9.9919   17.4189 C   0  0  0  0  0  0  0  0  0  0  0  0
   12.4767   -4.7393   22.1790 C   0  0  0  0  0  0  0  0  0  0  0  0
    7.8593   -5.3772   15.3569 N   0  0  0  0  0  0  0  0  0  0  0  0
    7.4412   -6.9038   16.9283 C   0  0  0  0  0  0  0  0  0  0  0  0
  1 21  4  0
  1 23  4  0
  2  5  1  0
  2 13  4  0
  2 16  4  0
  3  6  4  0
  3  7  4  0
  4 13  4  0
  4 19  4  0
  4 24  4  0
  6 23  4  0
  7 16  1  0
  7 21  4  0
  8 18  1  0
  9 20  4  0
  9 22  4  0
 10 17  1  0
 10 25  1  0
 11 16  4  0
 11 19  4  0
 12 15  4  0
 12 22  4  0
 14 24  4  0
 14 25  4  0
 15 17  4  0
 17 20  4  0
 18 23  1  0
 19 25  4  0
M  END
$$$$

 Created by Python create_sdf_string function

 25 28  0  0  0  0  0  0  0  0999 V2000
   13.1533   -5.2399   21.0682 C   0  0  0  0  0  0  0  0  0  0  0  0
   10.4729   -4.0295   17.6135 C   0  0  0  0  0  0  0  0  0  0  0  0
   10.4789   -4.3641   20.9564 C   0  0  0  0  0  0  0  0  0  0  0  0
    8.7421   -5.1412   16.3650 C   0  0  0  0  0  0  0  0  0  0  0  0
   11.4353   -2.9204   17.8044 C   0  0  0  0  0  0  0  0  0  0  0  0
   11.1529   -4.3028   22.1277 C   0  0  0  0  0  0  0  0  0  0  0  0
   11.1290   -4.8502   19.8052 C   0  0  0  0  0  0  0  0  0  0  0  0
   12.4329   -4.2159   24.4224 C   0  0  0  0  0  0  0  0  0  0  0  0
    3.4740   -9.0387   16.5022 C   0  0  0  0  0  0  0  0  0  0  0  0
    6.8384   -7.9290   17.5282 N   0  0  0  0  0  0  0  0  0  0  0  0
    9.4126   -5.9853   18.4899 C   0  0  0  0  0  0  0  0  0  0  0  0
    4.2064  -10.3242   18.3302 C   0  0  0  0  0  0  0  0  0  0  0  0
    9.6599   -4.1551   16.4796 N   0  0  0  0  0  0  0  0  0  0  0  0
    7.0644   -6.4612   15.7375 N   0  0  0  0  0  0  0  0  0  0  0  0
    5.3549   -9.6322   18.3190 C   0  0  0  0  0  0  0  0  0  0  0  0
   10.3704   -4.9638   18.6510 C   0  0  0  0  0  0  0  0  0  0  0  0
    5.5935   -8.6419   17.4234 C   0  0  0  0  0  0  0  0  0  0  0  0
   13.0726   -4.6648   23.3394 O   0  0  0  0  0  0  0  0  0  0  0  0
    8.5955   -6.0705   17.3996 C   0  0  0  0  0  0  0  0  0  0  0  0
    4.6223   -8.3832   16.5030 C   0  0  0  0  0  0  0  0  0  0  0  0
   12.4690   -5.2624   19.9024 C   0  0  0  0  0  0  0  0  0  0  0  0
    3.2548   -9.9919   17.4189 C   0  0  0  0  0  0  0  0  0  0  0  0
   12.4767   -4.7393   22.1790 C   0  0  0  0  0  0  0  0  0  0  0  0
    7.8593   -5.3772   15.3569 N   0  0  0  0  0  0  0  0  0  0  0  0
    7.4412   -6.9038   16.9283 C   0  0  0  0  0  0  0  0  0  0  0  0
  1 21  4  0
  1 23  4  0
  2  5  1  0
  2 13  4  0
  2 16  4  0
  3  6  4  0
  3  7  4  0
  4 13  4  0
  4 19  4  0
  4 24  4  0
  6 23  4  0
  7 16  1  0
  7 21  4  0
  8 18  1  0
  9 20  4  0
  9 22  4  0
 10 17  1  0
 10 25  1  0
 11 16  4  0
 11 19  4  0
 12 15  4  0
 12 22  4  0
 14 24  4  0
 14 25  4  0
 15 17  4  0
 17 20  4  0
 18 23  1  0
 19 25  4  0
M  END
$$$$

 Created by Python create_sdf_string function

 25 28  0  0  0  0  0  0  0  0999 V2000
   13.1533   -5.2399   21.0682 C   0  0  0  0  0  0  0  0  0  0  0  0
   10.4729   -4.0295   17.6135 C   0  0  0  0  0  0  0  0  0  0  0  0
   10.4789   -4.3641   20.9564 C   0  0  0  0  0  0  0  0  0  0  0  0
    8.7421   -5.1412   16.3650 C   0  0  0  0  0  0  0  0  0  0  0  0
   11.4353   -2.9204   17.8044 C   0  0  0  0  0  0  0  0  0  0  0  0
   11.1529   -4.3028   22.1277 C   0  0  0  0  0  0  0  0  0  0  0  0
   11.1290   -4.8502   19.8052 C   0  0  0  0  0  0  0  0  0  0  0  0
   12.4329   -4.2159   24.4224 C   0  0  0  0  0  0  0  0  0  0  0  0
    3.4740   -9.0387   16.5022 C   0  0  0  0  0  0  0  0  0  0  0  0
    6.8384   -7.9290   17.5282 N   0  0  0  0  0  0  0  0  0  0  0  0
    9.4126   -5.9853   18.4899 C   0  0  0  0  0  0  0  0  0  0  0  0
    4.2064  -10.3242   18.3302 C   0  0  0  0  0  0  0  0  0  0  0  0
    9.6599   -4.1551   16.4796 N   0  0  0  0  0  0  0  0  0  0  0  0
    7.0644   -6.4612   15.7375 N   0  0  0  0  0  0  0  0  0  0  0  0
    5.3549   -9.6322   18.3190 C   0  0  0  0  0  0  0  0  0  0  0  0
   10.3704   -4.9638   18.6510 C   0  0  0  0  0  0  0  0  0  0  0  0
    5.5935   -8.6419   17.4234 C   0  0  0  0  0  0  0  0  0  0  0  0
   13.0726   -4.6648   23.3394 O   0  0  0  0  0  0  0  0  0  0  0  0
    8.5955   -6.0705   17.3996 C   0  0  0  0  0  0  0  0  0  0  0  0
    4.6223   -8.3832   16.5030 C   0  0  0  0  0  0  0  0  0  0  0  0
   12.4690   -5.2624   19.9024 C   0  0  0  0  0  0  0  0  0  0  0  0
    3.2548   -9.9919   17.4189 C   0  0  0  0  0  0  0  0  0  0  0  0
   12.4767   -4.7393   22.1790 C   0  0  0  0  0  0  0  0  0  0  0  0
    7.8593   -5.3772   15.3569 N   0  0  0  0  0  0  0  0  0  0  0  0
    7.4412   -6.9038   16.9283 C   0  0  0  0  0  0  0  0  0  0  0  0
  1 21  4  0
  1 23  4  0
  2  5  1  0
  2 13  4  0
  2 16  4  0
  3  6  4  0
  3  7  4  0
  4 13  4  0
  4 19  4  0
  4 24  4  0
  6 23  4  0
  7 16  1  0
  7 21  4  0
  8 18  1  0
  9 20  4  0
  9 22  4  0
 10 17  1  0
 10 25  1  0
 11 16  4  0
 11 19  4  0
 12 15  4  0
 12 22  4  0
 14 24  4  0
 14 25  4  0
 15 17  4  0
 17 20  4  0
 18 23  1  0
 19 25  4  0
M  END
$$$$

 Created by Python create_sdf_string function

 25 28  0  0  0  0  0  0  0  0999 V2000
   13.1533   -5.2399   21.0682 C   0  0  0  0  0  0  0  0  0  0  0  0
   10.4729   -4.0295   17.6135 C   0  0  0  0  0  0  0  0  0  0  0  0
   10.4789   -4.3641   20.9564 C   0  0  0  0  0  0  0  0  0  0  0  0
    8.7421   -5.1412   16.3650 C   0  0  0  0  0  0  0  0  0  0  0  0
   11.4353   -2.9204   17.8044 C   0  0  0  0  0  0  0  0  0  0  0  0
   11.1529   -4.3028   22.1277 C   0  0  0  0  0  0  0  0  0  0  0  0
   11.1290   -4.8502   19.8052 C   0  0  0  0  0  0  0  0  0  0  0  0
   12.4329   -4.2159   24.4224 C   0  0  0  0  0  0  0  0  0  0  0  0
    3.4740   -9.0387   16.5022 C   0  0  0  0  0  0  0  0  0  0  0  0
    6.8384   -7.9290   17.5282 N   0  0  0  0  0  0  0  0  0  0  0  0
    9.4126   -5.9853   18.4899 C   0  0  0  0  0  0  0  0  0  0  0  0
    4.2064  -10.3242   18.3302 C   0  0  0  0  0  0  0  0  0  0  0  0
    9.6599   -4.1551   16.4796 N   0  0  0  0  0  0  0  0  0  0  0  0
    7.0644   -6.4612   15.7375 N   0  0  0  0  0  0  0  0  0  0  0  0
    5.3549   -9.6322   18.3190 C   0  0  0  0  0  0  0  0  0  0  0  0
   10.3704   -4.9638   18.6510 C   0  0  0  0  0  0  0  0  0  0  0  0
    5.5935   -8.6419   17.4234 C   0  0  0  0  0  0  0  0  0  0  0  0
   13.0726   -4.6648   23.3394 O   0  0  0  0  0  0  0  0  0  0  0  0
    8.5955   -6.0705   17.3996 C   0  0  0  0  0  0  0  0  0  0  0  0
    4.6223   -8.3832   16.5030 C   0  0  0  0  0  0  0  0  0  0  0  0
   12.4690   -5.2624   19.9024 C   0  0  0  0  0  0  0  0  0  0  0  0
    3.2548   -9.9919   17.4189 C   0  0  0  0  0  0  0  0  0  0  0  0
   12.4767   -4.7393   22.1790 C   0  0  0  0  0  0  0  0  0  0  0  0
    7.8593   -5.3772   15.3569 N   0  0  0  0  0  0  0  0  0  0  0  0
    7.4412   -6.9038   16.9283 C   0  0  0  0  0  0  0  0  0  0  0  0
  1 21  4  0
  1 23  4  0
  2  5  1  0
  2 13  4  0
  2 16  4  0
  3  6  4  0
  3  7  4  0
  4 13  4  0
  4 19  4  0
  4 24  4  0
  6 23  4  0
  7 16  1  0
  7 21  4  0
  8 18  1  0
  9 20  4  0
  9 22  4  0
 10 17  1  0
 10 25  1  0
 11 16  4  0
 11 19  4  0
 12 15  4  0
 12 22  4  0
 14 24  4  0
 14 25  4  0
 15 17  4  0
 17 20  4  0
 18 23  1  0
 19 25  4  0
M  END
$$$$

 Created by Python create_sdf_string function

 25 28  0  0  0  0  0  0  0  0999 V2000
   13.1533   -5.2399   21.0682 C   0  0  0  0  0  0  0  0  0  0  0  0
   10.4729   -4.0295   17.6135 C   0  0  0  0  0  0  0  0  0  0  0  0
   10.4789   -4.3641   20.9564 C   0  0  0  0  0  0  0  0  0  0  0  0
    8.7421   -5.1412   16.3650 C   0  0  0  0  0  0  0  0  0  0  0  0
   11.4353   -2.9204   17.8044 C   0  0  0  0  0  0  0  0  0  0  0  0
   11.1529   -4.3028   22.1277 C   0  0  0  0  0  0  0  0  0  0  0  0
   11.1290   -4.8502   19.8052 C   0  0  0  0  0  0  0  0  0  0  0  0
   12.4329   -4.2159   24.4224 C   0  0  0  0  0  0  0  0  0  0  0  0
    3.4740   -9.0387   16.5022 C   0  0  0  0  0  0  0  0  0  0  0  0
    6.8384   -7.9290   17.5282 N   0  0  0  0  0  0  0  0  0  0  0  0
    9.4126   -5.9853   18.4899 C   0  0  0  0  0  0  0  0  0  0  0  0
    4.2064  -10.3242   18.3302 C   0  0  0  0  0  0  0  0  0  0  0  0
    9.6599   -4.1551   16.4796 N   0  0  0  0  0  0  0  0  0  0  0  0
    7.0644   -6.4612   15.7375 N   0  0  0  0  0  0  0  0  0  0  0  0
    5.3549   -9.6322   18.3190 C   0  0  0  0  0  0  0  0  0  0  0  0
   10.3704   -4.9638   18.6510 C   0  0  0  0  0  0  0  0  0  0  0  0
    5.5935   -8.6419   17.4234 C   0  0  0  0  0  0  0  0  0  0  0  0
   13.0726   -4.6648   23.3394 O   0  0  0  0  0  0  0  0  0  0  0  0
    8.5955   -6.0705   17.3996 C   0  0  0  0  0  0  0  0  0  0  0  0
    4.6223   -8.3832   16.5030 C   0  0  0  0  0  0  0  0  0  0  0  0
   12.4690   -5.2624   19.9024 C   0  0  0  0  0  0  0  0  0  0  0  0
    3.2548   -9.9919   17.4189 C   0  0  0  0  0  0  0  0  0  0  0  0
   12.4767   -4.7393   22.1790 C   0  0  0  0  0  0  0  0  0  0  0  0
    7.8593   -5.3772   15.3569 N   0  0  0  0  0  0  0  0  0  0  0  0
    7.4412   -6.9038   16.9283 C   0  0  0  0  0  0  0  0  0  0  0  0
  1 21  4  0
  1 23  4  0
  2  5  1  0
  2 13  4  0
  2 16  4  0
  3  6  4  0
  3  7  4  0
  4 13  4  0
  4 19  4  0
  4 24  4  0
  6 23  4  0
  7 16  1  0
  7 21  4  0
  8 18  1  0
  9 20  4  0
  9 22  4  0
 10 17  1  0
 10 25  1  0
 11 16  4  0
 11 19  4  0
 12 15  4  0
 12 22  4  0
 14 24  4  0
 14 25  4  0
 15 17  4  0
 17 20  4  0
 18 23  1  0
 19 25  4  0
M  END
$$$$

 Created by Python create_sdf_string function

 25 28  0  0  0  0  0  0  0  0999 V2000
   13.1533   -5.2399   21.0682 C   0  0  0  0  0  0  0  0  0  0  0  0
   10.4729   -4.0295   17.6135 C   0  0  0  0  0  0  0  0  0  0  0  0
   10.4789   -4.3641   20.9564 C   0  0  0  0  0  0  0  0  0  0  0  0
    8.7421   -5.1412   16.3650 C   0  0  0  0  0  0  0  0  0  0  0  0
   11.4353   -2.9204   17.8044 C   0  0  0  0  0  0  0  0  0  0  0  0
   11.1529   -4.3028   22.1277 C   0  0  0  0  0  0  0  0  0  0  0  0
   11.1290   -4.8502   19.8052 C   0  0  0  0  0  0  0  0  0  0  0  0
   12.4329   -4.2159   24.4224 C   0  0  0  0  0  0  0  0  0  0  0  0
    3.4740   -9.0387   16.5022 C   0  0  0  0  0  0  0  0  0  0  0  0
    6.8384   -7.9290   17.5282 N   0  0  0  0  0  0  0  0  0  0  0  0
    9.4126   -5.9853   18.4899 C   0  0  0  0  0  0  0  0  0  0  0  0
    4.2064  -10.3242   18.3302 C   0  0  0  0  0  0  0  0  0  0  0  0
    9.6599   -4.1551   16.4796 N   0  0  0  0  0  0  0  0  0  0  0  0
    7.0644   -6.4612   15.7375 N   0  0  0  0  0  0  0  0  0  0  0  0
    5.3549   -9.6322   18.3190 C   0  0  0  0  0  0  0  0  0  0  0  0
   10.3704   -4.9638   18.6510 C   0  0  0  0  0  0  0  0  0  0  0  0
    5.5935   -8.6419   17.4234 C   0  0  0  0  0  0  0  0  0  0  0  0
   13.0726   -4.6648   23.3394 O   0  0  0  0  0  0  0  0  0  0  0  0
    8.5955   -6.0705   17.3996 C   0  0  0  0  0  0  0  0  0  0  0  0
    4.6223   -8.3832   16.5030 C   0  0  0  0  0  0  0  0  0  0  0  0
   12.4690   -5.2624   19.9024 C   0  0  0  0  0  0  0  0  0  0  0  0
    3.2548   -9.9919   17.4189 C   0  0  0  0  0  0  0  0  0  0  0  0
   12.4767   -4.7393   22.1790 C   0  0  0  0  0  0  0  0  0  0  0  0
    7.8593   -5.3772   15.3569 N   0  0  0  0  0  0  0  0  0  0  0  0
    7.4412   -6.9038   16.9283 C   0  0  0  0  0  0  0  0  0  0  0  0
  1 21  4  0
  1 23  4  0
  2  5  1  0
  2 13  4  0
  2 16  4  0
  3  6  4  0
  3  7  4  0
  4 13  4  0
  4 19  4  0
  4 24  4  0
  6 23  4  0
  7 16  1  0
  7 21  4  0
  8 18  1  0
  9 20  4  0
  9 22  4  0
 10 17  1  0
 10 25  1  0
 11 16  4  0
 11 19  4  0
 12 15  4  0
 12 22  4  0
 14 24  4  0
 14 25  4  0
 15 17  4  0
 17 20  4  0
 18 23  1  0
 19 25  4  0
M  END
$$$$

 Created by Python create_sdf_string function

 25 28  0  0  0  0  0  0  0  0999 V2000
   13.1533   -5.2399   21.0682 C   0  0  0  0  0  0  0  0  0  0  0  0
   10.4729   -4.0295   17.6135 C   0  0  0  0  0  0  0  0  0  0  0  0
   10.4789   -4.3641   20.9564 C   0  0  0  0  0  0  0  0  0  0  0  0
    8.7421   -5.1412   16.3650 C   0  0  0  0  0  0  0  0  0  0  0  0
   11.4353   -2.9204   17.8044 C   0  0  0  0  0  0  0  0  0  0  0  0
   11.1529   -4.3028   22.1277 C   0  0  0  0  0  0  0  0  0  0  0  0
   11.1290   -4.8502   19.8052 C   0  0  0  0  0  0  0  0  0  0  0  0
   12.4329   -4.2159   24.4224 C   0  0  0  0  0  0  0  0  0  0  0  0
    3.4740   -9.0387   16.5022 C   0  0  0  0  0  0  0  0  0  0  0  0
    6.8384   -7.9290   17.5282 N   0  0  0  0  0  0  0  0  0  0  0  0
    9.4126   -5.9853   18.4899 C   0  0  0  0  0  0  0  0  0  0  0  0
    4.2064  -10.3242   18.3302 C   0  0  0  0  0  0  0  0  0  0  0  0
    9.6599   -4.1551   16.4796 N   0  0  0  0  0  0  0  0  0  0  0  0
    7.0644   -6.4612   15.7375 N   0  0  0  0  0  0  0  0  0  0  0  0
    5.3549   -9.6322   18.3190 C   0  0  0  0  0  0  0  0  0  0  0  0
   10.3704   -4.9638   18.6510 C   0  0  0  0  0  0  0  0  0  0  0  0
    5.5935   -8.6419   17.4234 C   0  0  0  0  0  0  0  0  0  0  0  0
   13.0726   -4.6648   23.3394 O   0  0  0  0  0  0  0  0  0  0  0  0
    8.5955   -6.0705   17.3996 C   0  0  0  0  0  0  0  0  0  0  0  0
    4.6223   -8.3832   16.5030 C   0  0  0  0  0  0  0  0  0  0  0  0
   12.4690   -5.2624   19.9024 C   0  0  0  0  0  0  0  0  0  0  0  0
    3.2548   -9.9919   17.4189 C   0  0  0  0  0  0  0  0  0  0  0  0
   12.4767   -4.7393   22.1790 C   0  0  0  0  0  0  0  0  0  0  0  0
    7.8593   -5.3772   15.3569 N   0  0  0  0  0  0  0  0  0  0  0  0
    7.4412   -6.9038   16.9283 C   0  0  0  0  0  0  0  0  0  0  0  0
  1 21  4  0
  1 23  4  0
  2  5  1  0
  2 13  4  0
  2 16  4  0
  3  6  4  0
  3  7  4  0
  4 13  4  0
  4 19  4  0
  4 24  4  0
  6 23  4  0
  7 16  1  0
  7 21  4  0
  8 18  1  0
  9 20  4  0
  9 22  4  0
 10 17  1  0
 10 25  1  0
 11 16  4  0
 11 19  4  0
 12 15  4  0
 12 22  4  0
 14 24  4  0
 14 25  4  0
 15 17  4  0
 17 20  4  0
 18 23  1  0
 19 25  4  0
M  END
$$$$

 Created by Python create_sdf_string function

 25 28  0  0  0  0  0  0  0  0999 V2000
   13.1533   -5.2399   21.0682 C   0  0  0  0  0  0  0  0  0  0  0  0
   10.4729   -4.0295   17.6135 C   0  0  0  0  0  0  0  0  0  0  0  0
   10.4789   -4.3641   20.9564 C   0  0  0  0  0  0  0  0  0  0  0  0
    8.7421   -5.1412   16.3650 C   0  0  0  0  0  0  0  0  0  0  0  0
   11.4353   -2.9204   17.8044 C   0  0  0  0  0  0  0  0  0  0  0  0
   11.1529   -4.3028   22.1277 C   0  0  0  0  0  0  0  0  0  0  0  0
   11.1290   -4.8502   19.8052 C   0  0  0  0  0  0  0  0  0  0  0  0
   12.4329   -4.2159   24.4224 C   0  0  0  0  0  0  0  0  0  0  0  0
    3.4740   -9.0387   16.5022 C   0  0  0  0  0  0  0  0  0  0  0  0
    6.8384   -7.9290   17.5282 N   0  0  0  0  0  0  0  0  0  0  0  0
    9.4126   -5.9853   18.4899 C   0  0  0  0  0  0  0  0  0  0  0  0
    4.2064  -10.3242   18.3302 C   0  0  0  0  0  0  0  0  0  0  0  0
    9.6599   -4.1551   16.4796 N   0  0  0  0  0  0  0  0  0  0  0  0
    7.0644   -6.4612   15.7375 N   0  0  0  0  0  0  0  0  0  0  0  0
    5.3549   -9.6322   18.3190 C   0  0  0  0  0  0  0  0  0  0  0  0
   10.3704   -4.9638   18.6510 C   0  0  0  0  0  0  0  0  0  0  0  0
    5.5935   -8.6419   17.4234 C   0  0  0  0  0  0  0  0  0  0  0  0
   13.0726   -4.6648   23.3394 O   0  0  0  0  0  0  0  0  0  0  0  0
    8.5955   -6.0705   17.3996 C   0  0  0  0  0  0  0  0  0  0  0  0
    4.6223   -8.3832   16.5030 C   0  0  0  0  0  0  0  0  0  0  0  0
   12.4690   -5.2624   19.9024 C   0  0  0  0  0  0  0  0  0  0  0  0
    3.2548   -9.9919   17.4189 C   0  0  0  0  0  0  0  0  0  0  0  0
   12.4767   -4.7393   22.1790 C   0  0  0  0  0  0  0  0  0  0  0  0
    7.8593   -5.3772   15.3569 N   0  0  0  0  0  0  0  0  0  0  0  0
    7.4412   -6.9038   16.9283 C   0  0  0  0  0  0  0  0  0  0  0  0
  1 21  4  0
  1 23  4  0
  2  5  1  0
  2 13  4  0
  2 16  4  0
  3  6  4  0
  3  7  4  0
  4 13  4  0
  4 19  4  0
  4 24  4  0
  6 23  4  0
  7 16  1  0
  7 21  4  0
  8 18  1  0
  9 20  4  0
  9 22  4  0
 10 17  1  0
 10 25  1  0
 11 16  4  0
 11 19  4  0
 12 15  4  0
 12 22  4  0
 14 24  4  0
 14 25  4  0
 15 17  4  0
 17 20  4  0
 18 23  1  0
 19 25  4  0
M  END
$$$$

 Created by Python create_sdf_string function

 25 28  0  0  0  0  0  0  0  0999 V2000
   13.1533   -5.2399   21.0682 C   0  0  0  0  0  0  0  0  0  0  0  0
   10.4729   -4.0295   17.6135 C   0  0  0  0  0  0  0  0  0  0  0  0
   10.4789   -4.3641   20.9564 C   0  0  0  0  0  0  0  0  0  0  0  0
    8.7421   -5.1412   16.3650 C   0  0  0  0  0  0  0  0  0  0  0  0
   11.4353   -2.9204   17.8044 C   0  0  0  0  0  0  0  0  0  0  0  0
   11.1529   -4.3028   22.1277 C   0  0  0  0  0  0  0  0  0  0  0  0
   11.1290   -4.8502   19.8052 C   0  0  0  0  0  0  0  0  0  0  0  0
   12.4329   -4.2159   24.4224 C   0  0  0  0  0  0  0  0  0  0  0  0
    3.4740   -9.0387   16.5022 C   0  0  0  0  0  0  0  0  0  0  0  0
    6.8384   -7.9290   17.5282 N   0  0  0  0  0  0  0  0  0  0  0  0
    9.4126   -5.9853   18.4899 C   0  0  0  0  0  0  0  0  0  0  0  0
    4.2064  -10.3242   18.3302 C   0  0  0  0  0  0  0  0  0  0  0  0
    9.6599   -4.1551   16.4796 N   0  0  0  0  0  0  0  0  0  0  0  0
    7.0644   -6.4612   15.7375 N   0  0  0  0  0  0  0  0  0  0  0  0
    5.3549   -9.6322   18.3190 C   0  0  0  0  0  0  0  0  0  0  0  0
   10.3704   -4.9638   18.6510 C   0  0  0  0  0  0  0  0  0  0  0  0
    5.5935   -8.6419   17.4234 C   0  0  0  0  0  0  0  0  0  0  0  0
   13.0726   -4.6648   23.3394 O   0  0  0  0  0  0  0  0  0  0  0  0
    8.5955   -6.0705   17.3996 C   0  0  0  0  0  0  0  0  0  0  0  0
    4.6223   -8.3832   16.5030 C   0  0  0  0  0  0  0  0  0  0  0  0
   12.4690   -5.2624   19.9024 C   0  0  0  0  0  0  0  0  0  0  0  0
    3.2548   -9.9919   17.4189 C   0  0  0  0  0  0  0  0  0  0  0  0
   12.4767   -4.7393   22.1790 C   0  0  0  0  0  0  0  0  0  0  0  0
    7.8593   -5.3772   15.3569 N   0  0  0  0  0  0  0  0  0  0  0  0
    7.4412   -6.9038   16.9283 C   0  0  0  0  0  0  0  0  0  0  0  0
  1 21  4  0
  1 23  4  0
  2  5  1  0
  2 13  4  0
  2 16  4  0
  3  6  4  0
  3  7  4  0
  4 13  4  0
  4 19  4  0
  4 24  4  0
  6 23  4  0
  7 16  1  0
  7 21  4  0
  8 18  1  0
  9 20  4  0
  9 22  4  0
 10 17  1  0
 10 25  1  0
 11 16  4  0
 11 19  4  0
 12 15  4  0
 12 22  4  0
 14 24  4  0
 14 25  4  0
 15 17  4  0
 17 20  4  0
 18 23  1  0
 19 25  4  0
M  END
$$$$

 Created by Python create_sdf_string function

 25 28  0  0  0  0  0  0  0  0999 V2000
   13.1533   -5.2399   21.0682 C   0  0  0  0  0  0  0  0  0  0  0  0
   10.4729   -4.0295   17.6135 C   0  0  0  0  0  0  0  0  0  0  0  0
   10.4789   -4.3641   20.9564 C   0  0  0  0  0  0  0  0  0  0  0  0
    8.7421   -5.1412   16.3650 C   0  0  0  0  0  0  0  0  0  0  0  0
   11.4353   -2.9204   17.8044 C   0  0  0  0  0  0  0  0  0  0  0  0
   11.1529   -4.3028   22.1277 C   0  0  0  0  0  0  0  0  0  0  0  0
   11.1290   -4.8502   19.8052 C   0  0  0  0  0  0  0  0  0  0  0  0
   12.4329   -4.2159   24.4224 C   0  0  0  0  0  0  0  0  0  0  0  0
    3.4740   -9.0387   16.5022 C   0  0  0  0  0  0  0  0  0  0  0  0
    6.8384   -7.9290   17.5282 N   0  0  0  0  0  0  0  0  0  0  0  0
    9.4126   -5.9853   18.4899 C   0  0  0  0  0  0  0  0  0  0  0  0
    4.2064  -10.3242   18.3302 C   0  0  0  0  0  0  0  0  0  0  0  0
    9.6599   -4.1551   16.4796 N   0  0  0  0  0  0  0  0  0  0  0  0
    7.0644   -6.4612   15.7375 N   0  0  0  0  0  0  0  0  0  0  0  0
    5.3549   -9.6322   18.3190 C   0  0  0  0  0  0  0  0  0  0  0  0
   10.3704   -4.9638   18.6510 C   0  0  0  0  0  0  0  0  0  0  0  0
    5.5935   -8.6419   17.4234 C   0  0  0  0  0  0  0  0  0  0  0  0
   13.0726   -4.6648   23.3394 O   0  0  0  0  0  0  0  0  0  0  0  0
    8.5955   -6.0705   17.3996 C   0  0  0  0  0  0  0  0  0  0  0  0
    4.6223   -8.3832   16.5030 C   0  0  0  0  0  0  0  0  0  0  0  0
   12.4690   -5.2624   19.9024 C   0  0  0  0  0  0  0  0  0  0  0  0
    3.2548   -9.9919   17.4189 C   0  0  0  0  0  0  0  0  0  0  0  0
   12.4767   -4.7393   22.1790 C   0  0  0  0  0  0  0  0  0  0  0  0
    7.8593   -5.3772   15.3569 N   0  0  0  0  0  0  0  0  0  0  0  0
    7.4412   -6.9038   16.9283 C   0  0  0  0  0  0  0  0  0  0  0  0
  1 21  4  0
  1 23  4  0
  2  5  1  0
  2 13  4  0
  2 16  4  0
  3  6  4  0
  3  7  4  0
  4 13  4  0
  4 19  4  0
  4 24  4  0
  6 23  4  0
  7 16  1  0
  7 21  4  0
  8 18  1  0
  9 20  4  0
  9 22  4  0
 10 17  1  0
 10 25  1  0
 11 16  4  0
 11 19  4  0
 12 15  4  0
 12 22  4  0
 14 24  4  0
 14 25  4  0
 15 17  4  0
 17 20  4  0
 18 23  1  0
 19 25  4  0
M  END
$$$$

 Created by Python create_sdf_string function

 25 28  0  0  0  0  0  0  0  0999 V2000
   13.1533   -5.2399   21.0682 C   0  0  0  0  0  0  0  0  0  0  0  0
   10.4729   -4.0295   17.6135 C   0  0  0  0  0  0  0  0  0  0  0  0
   10.4789   -4.3641   20.9564 C   0  0  0  0  0  0  0  0  0  0  0  0
    8.7421   -5.1412   16.3650 C   0  0  0  0  0  0  0  0  0  0  0  0
   11.4353   -2.9204   17.8044 C   0  0  0  0  0  0  0  0  0  0  0  0
   11.1529   -4.3028   22.1277 C   0  0  0  0  0  0  0  0  0  0  0  0
   11.1290   -4.8502   19.8052 C   0  0  0  0  0  0  0  0  0  0  0  0
   12.4329   -4.2159   24.4224 C   0  0  0  0  0  0  0  0  0  0  0  0
    3.4740   -9.0387   16.5022 C   0  0  0  0  0  0  0  0  0  0  0  0
    6.8384   -7.9290   17.5282 N   0  0  0  0  0  0  0  0  0  0  0  0
    9.4126   -5.9853   18.4899 C   0  0  0  0  0  0  0  0  0  0  0  0
    4.2064  -10.3242   18.3302 C   0  0  0  0  0  0  0  0  0  0  0  0
    9.6599   -4.1551   16.4796 N   0  0  0  0  0  0  0  0  0  0  0  0
    7.0644   -6.4612   15.7375 N   0  0  0  0  0  0  0  0  0  0  0  0
    5.3549   -9.6322   18.3190 C   0  0  0  0  0  0  0  0  0  0  0  0
   10.3704   -4.9638   18.6510 C   0  0  0  0  0  0  0  0  0  0  0  0
    5.5935   -8.6419   17.4234 C   0  0  0  0  0  0  0  0  0  0  0  0
   13.0726   -4.6648   23.3394 O   0  0  0  0  0  0  0  0  0  0  0  0
    8.5955   -6.0705   17.3996 C   0  0  0  0  0  0  0  0  0  0  0  0
    4.6223   -8.3832   16.5030 C   0  0  0  0  0  0  0  0  0  0  0  0
   12.4690   -5.2624   19.9024 C   0  0  0  0  0  0  0  0  0  0  0  0
    3.2548   -9.9919   17.4189 C   0  0  0  0  0  0  0  0  0  0  0  0
   12.4767   -4.7393   22.1790 C   0  0  0  0  0  0  0  0  0  0  0  0
    7.8593   -5.3772   15.3569 N   0  0  0  0  0  0  0  0  0  0  0  0
    7.4412   -6.9038   16.9283 C   0  0  0  0  0  0  0  0  0  0  0  0
  1 21  4  0
  1 23  4  0
  2  5  1  0
  2 13  4  0
  2 16  4  0
  3  6  4  0
  3  7  4  0
  4 13  4  0
  4 19  4  0
  4 24  4  0
  6 23  4  0
  7 16  1  0
  7 21  4  0
  8 18  1  0
  9 20  4  0
  9 22  4  0
 10 17  1  0
 10 25  1  0
 11 16  4  0
 11 19  4  0
 12 15  4  0
 12 22  4  0
 14 24  4  0
 14 25  4  0
 15 17  4  0
 17 20  4  0
 18 23  1  0
 19 25  4  0
M  END
$$$$

 Created by Python create_sdf_string function

 25 28  0  0  0  0  0  0  0  0999 V2000
   13.1533   -5.2399   21.0682 C   0  0  0  0  0  0  0  0  0  0  0  0
   10.4729   -4.0295   17.6135 C   0  0  0  0  0  0  0  0  0  0  0  0
   10.4789   -4.3641   20.9564 C   0  0  0  0  0  0  0  0  0  0  0  0
    8.7421   -5.1412   16.3650 C   0  0  0  0  0  0  0  0  0  0  0  0
   11.4353   -2.9204   17.8044 C   0  0  0  0  0  0  0  0  0  0  0  0
   11.1529   -4.3028   22.1277 C   0  0  0  0  0  0  0  0  0  0  0  0
   11.1290   -4.8502   19.8052 C   0  0  0  0  0  0  0  0  0  0  0  0
   12.4329   -4.2159   24.4224 C   0  0  0  0  0  0  0  0  0  0  0  0
    3.4740   -9.0387   16.5022 C   0  0  0  0  0  0  0  0  0  0  0  0
    6.8384   -7.9290   17.5282 N   0  0  0  0  0  0  0  0  0  0  0  0
    9.4126   -5.9853   18.4899 C   0  0  0  0  0  0  0  0  0  0  0  0
    4.2064  -10.3242   18.3302 C   0  0  0  0  0  0  0  0  0  0  0  0
    9.6599   -4.1551   16.4796 N   0  0  0  0  0  0  0  0  0  0  0  0
    7.0644   -6.4612   15.7375 N   0  0  0  0  0  0  0  0  0  0  0  0
    5.3549   -9.6322   18.3190 C   0  0  0  0  0  0  0  0  0  0  0  0
   10.3704   -4.9638   18.6510 C   0  0  0  0  0  0  0  0  0  0  0  0
    5.5935   -8.6419   17.4234 C   0  0  0  0  0  0  0  0  0  0  0  0
   13.0726   -4.6648   23.3394 O   0  0  0  0  0  0  0  0  0  0  0  0
    8.5955   -6.0705   17.3996 C   0  0  0  0  0  0  0  0  0  0  0  0
    4.6223   -8.3832   16.5030 C   0  0  0  0  0  0  0  0  0  0  0  0
   12.4690   -5.2624   19.9024 C   0  0  0  0  0  0  0  0  0  0  0  0
    3.2548   -9.9919   17.4189 C   0  0  0  0  0  0  0  0  0  0  0  0
   12.4767   -4.7393   22.1790 C   0  0  0  0  0  0  0  0  0  0  0  0
    7.8593   -5.3772   15.3569 N   0  0  0  0  0  0  0  0  0  0  0  0
    7.4412   -6.9038   16.9283 C   0  0  0  0  0  0  0  0  0  0  0  0
  1 21  4  0
  1 23  4  0
  2  5  1  0
  2 13  4  0
  2 16  4  0
  3  6  4  0
  3  7  4  0
  4 13  4  0
  4 19  4  0
  4 24  4  0
  6 23  4  0
  7 16  1  0
  7 21  4  0
  8 18  1  0
  9 20  4  0
  9 22  4  0
 10 17  1  0
 10 25  1  0
 11 16  4  0
 11 19  4  0
 12 15  4  0
 12 22  4  0
 14 24  4  0
 14 25  4  0
 15 17  4  0
 17 20  4  0
 18 23  1  0
 19 25  4  0
M  END
$$$$

 Created by Python create_sdf_string function

 25 28  0  0  0  0  0  0  0  0999 V2000
   13.1533   -5.2399   21.0682 C   0  0  0  0  0  0  0  0  0  0  0  0
   10.4729   -4.0295   17.6135 C   0  0  0  0  0  0  0  0  0  0  0  0
   10.4789   -4.3641   20.9564 C   0  0  0  0  0  0  0  0  0  0  0  0
    8.7421   -5.1412   16.3650 C   0  0  0  0  0  0  0  0  0  0  0  0
   11.4353   -2.9204   17.8044 C   0  0  0  0  0  0  0  0  0  0  0  0
   11.1529   -4.3028   22.1277 C   0  0  0  0  0  0  0  0  0  0  0  0
   11.1290   -4.8502   19.8052 C   0  0  0  0  0  0  0  0  0  0  0  0
   12.4329   -4.2159   24.4224 C   0  0  0  0  0  0  0  0  0  0  0  0
    3.4740   -9.0387   16.5022 C   0  0  0  0  0  0  0  0  0  0  0  0
    6.8384   -7.9290   17.5282 N   0  0  0  0  0  0  0  0  0  0  0  0
    9.4126   -5.9853   18.4899 C   0  0  0  0  0  0  0  0  0  0  0  0
    4.2064  -10.3242   18.3302 C   0  0  0  0  0  0  0  0  0  0  0  0
    9.6599   -4.1551   16.4796 N   0  0  0  0  0  0  0  0  0  0  0  0
    7.0644   -6.4612   15.7375 N   0  0  0  0  0  0  0  0  0  0  0  0
    5.3549   -9.6322   18.3190 C   0  0  0  0  0  0  0  0  0  0  0  0
   10.3704   -4.9638   18.6510 C   0  0  0  0  0  0  0  0  0  0  0  0
    5.5935   -8.6419   17.4234 C   0  0  0  0  0  0  0  0  0  0  0  0
   13.0726   -4.6648   23.3394 O   0  0  0  0  0  0  0  0  0  0  0  0
    8.5955   -6.0705   17.3996 C   0  0  0  0  0  0  0  0  0  0  0  0
    4.6223   -8.3832   16.5030 C   0  0  0  0  0  0  0  0  0  0  0  0
   12.4690   -5.2624   19.9024 C   0  0  0  0  0  0  0  0  0  0  0  0
    3.2548   -9.9919   17.4189 C   0  0  0  0  0  0  0  0  0  0  0  0
   12.4767   -4.7393   22.1790 C   0  0  0  0  0  0  0  0  0  0  0  0
    7.8593   -5.3772   15.3569 N   0  0  0  0  0  0  0  0  0  0  0  0
    7.4412   -6.9038   16.9283 C   0  0  0  0  0  0  0  0  0  0  0  0
  1 21  4  0
  1 23  4  0
  2  5  1  0
  2 13  4  0
  2 16  4  0
  3  6  4  0
  3  7  4  0
  4 13  4  0
  4 19  4  0
  4 24  4  0
  6 23  4  0
  7 16  1  0
  7 21  4  0
  8 18  1  0
  9 20  4  0
  9 22  4  0
 10 17  1  0
 10 25  1  0
 11 16  4  0
 11 19  4  0
 12 15  4  0
 12 22  4  0
 14 24  4  0
 14 25  4  0
 15 17  4  0
 17 20  4  0
 18 23  1  0
 19 25  4  0
M  END
$$$$

 Created by Python create_sdf_string function

 25 28  0  0  0  0  0  0  0  0999 V2000
   13.1533   -5.2399   21.0682 C   0  0  0  0  0  0  0  0  0  0  0  0
   10.4729   -4.0295   17.6135 C   0  0  0  0  0  0  0  0  0  0  0  0
   10.4789   -4.3641   20.9564 C   0  0  0  0  0  0  0  0  0  0  0  0
    8.7421   -5.1412   16.3650 C   0  0  0  0  0  0  0  0  0  0  0  0
   11.4353   -2.9204   17.8044 C   0  0  0  0  0  0  0  0  0  0  0  0
   11.1529   -4.3028   22.1277 C   0  0  0  0  0  0  0  0  0  0  0  0
   11.1290   -4.8502   19.8052 C   0  0  0  0  0  0  0  0  0  0  0  0
   12.4329   -4.2159   24.4224 C   0  0  0  0  0  0  0  0  0  0  0  0
    3.4740   -9.0387   16.5022 C   0  0  0  0  0  0  0  0  0  0  0  0
    6.8384   -7.9290   17.5282 N   0  0  0  0  0  0  0  0  0  0  0  0
    9.4126   -5.9853   18.4899 C   0  0  0  0  0  0  0  0  0  0  0  0
    4.2064  -10.3242   18.3302 C   0  0  0  0  0  0  0  0  0  0  0  0
    9.6599   -4.1551   16.4796 N   0  0  0  0  0  0  0  0  0  0  0  0
    7.0644   -6.4612   15.7375 N   0  0  0  0  0  0  0  0  0  0  0  0
    5.3549   -9.6322   18.3190 C   0  0  0  0  0  0  0  0  0  0  0  0
   10.3704   -4.9638   18.6510 C   0  0  0  0  0  0  0  0  0  0  0  0
    5.5935   -8.6419   17.4234 C   0  0  0  0  0  0  0  0  0  0  0  0
   13.0726   -4.6648   23.3394 O   0  0  0  0  0  0  0  0  0  0  0  0
    8.5955   -6.0705   17.3996 C   0  0  0  0  0  0  0  0  0  0  0  0
    4.6223   -8.3832   16.5030 C   0  0  0  0  0  0  0  0  0  0  0  0
   12.4690   -5.2624   19.9024 C   0  0  0  0  0  0  0  0  0  0  0  0
    3.2548   -9.9919   17.4189 C   0  0  0  0  0  0  0  0  0  0  0  0
   12.4767   -4.7393   22.1790 C   0  0  0  0  0  0  0  0  0  0  0  0
    7.8593   -5.3772   15.3569 N   0  0  0  0  0  0  0  0  0  0  0  0
    7.4412   -6.9038   16.9283 C   0  0  0  0  0  0  0  0  0  0  0  0
  1 21  4  0
  1 23  4  0
  2  5  1  0
  2 13  4  0
  2 16  4  0
  3  6  4  0
  3  7  4  0
  4 13  4  0
  4 19  4  0
  4 24  4  0
  6 23  4  0
  7 16  1  0
  7 21  4  0
  8 18  1  0
  9 20  4  0
  9 22  4  0
 10 17  1  0
 10 25  1  0
 11 16  4  0
 11 19  4  0
 12 15  4  0
 12 22  4  0
 14 24  4  0
 14 25  4  0
 15 17  4  0
 17 20  4  0
 18 23  1  0
 19 25  4  0
M  END
$$$$

 Created by Python create_sdf_string function

 25 28  0  0  0  0  0  0  0  0999 V2000
   13.1533   -5.2399   21.0682 C   0  0  0  0  0  0  0  0  0  0  0  0
   10.4729   -4.0295   17.6135 C   0  0  0  0  0  0  0  0  0  0  0  0
   10.4789   -4.3641   20.9564 C   0  0  0  0  0  0  0  0  0  0  0  0
    8.7421   -5.1412   16.3650 C   0  0  0  0  0  0  0  0  0  0  0  0
   11.4353   -2.9204   17.8044 C   0  0  0  0  0  0  0  0  0  0  0  0
   11.1529   -4.3028   22.1277 C   0  0  0  0  0  0  0  0  0  0  0  0
   11.1290   -4.8502   19.8052 C   0  0  0  0  0  0  0  0  0  0  0  0
   12.4329   -4.2159   24.4224 C   0  0  0  0  0  0  0  0  0  0  0  0
    3.4740   -9.0387   16.5022 C   0  0  0  0  0  0  0  0  0  0  0  0
    6.8384   -7.9290   17.5282 N   0  0  0  0  0  0  0  0  0  0  0  0
    9.4126   -5.9853   18.4899 C   0  0  0  0  0  0  0  0  0  0  0  0
    4.2064  -10.3242   18.3302 C   0  0  0  0  0  0  0  0  0  0  0  0
    9.6599   -4.1551   16.4796 N   0  0  0  0  0  0  0  0  0  0  0  0
    7.0644   -6.4612   15.7375 N   0  0  0  0  0  0  0  0  0  0  0  0
    5.3549   -9.6322   18.3190 C   0  0  0  0  0  0  0  0  0  0  0  0
   10.3704   -4.9638   18.6510 C   0  0  0  0  0  0  0  0  0  0  0  0
    5.5935   -8.6419   17.4234 C   0  0  0  0  0  0  0  0  0  0  0  0
   13.0726   -4.6648   23.3394 O   0  0  0  0  0  0  0  0  0  0  0  0
    8.5955   -6.0705   17.3996 C   0  0  0  0  0  0  0  0  0  0  0  0
    4.6223   -8.3832   16.5030 C   0  0  0  0  0  0  0  0  0  0  0  0
   12.4690   -5.2624   19.9024 C   0  0  0  0  0  0  0  0  0  0  0  0
    3.2548   -9.9919   17.4189 C   0  0  0  0  0  0  0  0  0  0  0  0
   12.4767   -4.7393   22.1790 C   0  0  0  0  0  0  0  0  0  0  0  0
    7.8593   -5.3772   15.3569 N   0  0  0  0  0  0  0  0  0  0  0  0
    7.4412   -6.9038   16.9283 C   0  0  0  0  0  0  0  0  0  0  0  0
  1 21  4  0
  1 23  4  0
  2  5  1  0
  2 13  4  0
  2 16  4  0
  3  6  4  0
  3  7  4  0
  4 13  4  0
  4 19  4  0
  4 24  4  0
  6 23  4  0
  7 16  1  0
  7 21  4  0
  8 18  1  0
  9 20  4  0
  9 22  4  0
 10 17  1  0
 10 25  1  0
 11 16  4  0
 11 19  4  0
 12 15  4  0
 12 22  4  0
 14 24  4  0
 14 25  4  0
 15 17  4  0
 17 20  4  0
 18 23  1  0
 19 25  4  0
M  END
$$$$

 Created by Python create_sdf_string function

 25 28  0  0  0  0  0  0  0  0999 V2000
   13.1533   -5.2399   21.0682 C   0  0  0  0  0  0  0  0  0  0  0  0
   10.4729   -4.0295   17.6135 C   0  0  0  0  0  0  0  0  0  0  0  0
   10.4789   -4.3641   20.9564 C   0  0  0  0  0  0  0  0  0  0  0  0
    8.7421   -5.1412   16.3650 C   0  0  0  0  0  0  0  0  0  0  0  0
   11.4353   -2.9204   17.8044 C   0  0  0  0  0  0  0  0  0  0  0  0
   11.1529   -4.3028   22.1277 C   0  0  0  0  0  0  0  0  0  0  0  0
   11.1290   -4.8502   19.8052 C   0  0  0  0  0  0  0  0  0  0  0  0
   12.4329   -4.2159   24.4224 C   0  0  0  0  0  0  0  0  0  0  0  0
    3.4740   -9.0387   16.5022 C   0  0  0  0  0  0  0  0  0  0  0  0
    6.8384   -7.9290   17.5282 N   0  0  0  0  0  0  0  0  0  0  0  0
    9.4126   -5.9853   18.4899 C   0  0  0  0  0  0  0  0  0  0  0  0
    4.2064  -10.3242   18.3302 C   0  0  0  0  0  0  0  0  0  0  0  0
    9.6599   -4.1551   16.4796 N   0  0  0  0  0  0  0  0  0  0  0  0
    7.0644   -6.4612   15.7375 N   0  0  0  0  0  0  0  0  0  0  0  0
    5.3549   -9.6322   18.3190 C   0  0  0  0  0  0  0  0  0  0  0  0
   10.3704   -4.9638   18.6510 C   0  0  0  0  0  0  0  0  0  0  0  0
    5.5935   -8.6419   17.4234 C   0  0  0  0  0  0  0  0  0  0  0  0
   13.0726   -4.6648   23.3394 O   0  0  0  0  0  0  0  0  0  0  0  0
    8.5955   -6.0705   17.3996 C   0  0  0  0  0  0  0  0  0  0  0  0
    4.6223   -8.3832   16.5030 C   0  0  0  0  0  0  0  0  0  0  0  0
   12.4690   -5.2624   19.9024 C   0  0  0  0  0  0  0  0  0  0  0  0
    3.2548   -9.9919   17.4189 C   0  0  0  0  0  0  0  0  0  0  0  0
   12.4767   -4.7393   22.1790 C   0  0  0  0  0  0  0  0  0  0  0  0
    7.8593   -5.3772   15.3569 N   0  0  0  0  0  0  0  0  0  0  0  0
    7.4412   -6.9038   16.9283 C   0  0  0  0  0  0  0  0  0  0  0  0
  1 21  4  0
  1 23  4  0
  2  5  1  0
  2 13  4  0
  2 16  4  0
  3  6  4  0
  3  7  4  0
  4 13  4  0
  4 19  4  0
  4 24  4  0
  6 23  4  0
  7 16  1  0
  7 21  4  0
  8 18  1  0
  9 20  4  0
  9 22  4  0
 10 17  1  0
 10 25  1  0
 11 16  4  0
 11 19  4  0
 12 15  4  0
 12 22  4  0
 14 24  4  0
 14 25  4  0
 15 17  4  0
 17 20  4  0
 18 23  1  0
 19 25  4  0
M  END
$$$$

 Created by Python create_sdf_string function

 25 28  0  0  0  0  0  0  0  0999 V2000
   13.1533   -5.2399   21.0682 C   0  0  0  0  0  0  0  0  0  0  0  0
   10.4729   -4.0295   17.6135 C   0  0  0  0  0  0  0  0  0  0  0  0
   10.4789   -4.3641   20.9564 C   0  0  0  0  0  0  0  0  0  0  0  0
    8.7421   -5.1412   16.3650 C   0  0  0  0  0  0  0  0  0  0  0  0
   11.4353   -2.9204   17.8044 C   0  0  0  0  0  0  0  0  0  0  0  0
   11.1529   -4.3028   22.1277 C   0  0  0  0  0  0  0  0  0  0  0  0
   11.1290   -4.8502   19.8052 C   0  0  0  0  0  0  0  0  0  0  0  0
   12.4329   -4.2159   24.4224 C   0  0  0  0  0  0  0  0  0  0  0  0
    3.4740   -9.0387   16.5022 C   0  0  0  0  0  0  0  0  0  0  0  0
    6.8384   -7.9290   17.5282 N   0  0  0  0  0  0  0  0  0  0  0  0
    9.4126   -5.9853   18.4899 C   0  0  0  0  0  0  0  0  0  0  0  0
    4.2064  -10.3242   18.3302 C   0  0  0  0  0  0  0  0  0  0  0  0
    9.6599   -4.1551   16.4796 N   0  0  0  0  0  0  0  0  0  0  0  0
    7.0644   -6.4612   15.7375 N   0  0  0  0  0  0  0  0  0  0  0  0
    5.3549   -9.6322   18.3190 C   0  0  0  0  0  0  0  0  0  0  0  0
   10.3704   -4.9638   18.6510 C   0  0  0  0  0  0  0  0  0  0  0  0
    5.5935   -8.6419   17.4234 C   0  0  0  0  0  0  0  0  0  0  0  0
   13.0726   -4.6648   23.3394 O   0  0  0  0  0  0  0  0  0  0  0  0
    8.5955   -6.0705   17.3996 C   0  0  0  0  0  0  0  0  0  0  0  0
    4.6223   -8.3832   16.5030 C   0  0  0  0  0  0  0  0  0  0  0  0
   12.4690   -5.2624   19.9024 C   0  0  0  0  0  0  0  0  0  0  0  0
    3.2548   -9.9919   17.4189 C   0  0  0  0  0  0  0  0  0  0  0  0
   12.4767   -4.7393   22.1790 C   0  0  0  0  0  0  0  0  0  0  0  0
    7.8593   -5.3772   15.3569 N   0  0  0  0  0  0  0  0  0  0  0  0
    7.4412   -6.9038   16.9283 C   0  0  0  0  0  0  0  0  0  0  0  0
  1 21  4  0
  1 23  4  0
  2  5  1  0
  2 13  4  0
  2 16  4  0
  3  6  4  0
  3  7  4  0
  4 13  4  0
  4 19  4  0
  4 24  4  0
  6 23  4  0
  7 16  1  0
  7 21  4  0
  8 18  1  0
  9 20  4  0
  9 22  4  0
 10 17  1  0
 10 25  1  0
 11 16  4  0
 11 19  4  0
 12 15  4  0
 12 22  4  0
 14 24  4  0
 14 25  4  0
 15 17  4  0
 17 20  4  0
 18 23  1  0
 19 25  4  0
M  END
$$$$

 Created by Python create_sdf_string function

 25 28  0  0  0  0  0  0  0  0999 V2000
   13.1533   -5.2399   21.0682 C   0  0  0  0  0  0  0  0  0  0  0  0
   10.4729   -4.0295   17.6135 C   0  0  0  0  0  0  0  0  0  0  0  0
   10.4789   -4.3641   20.9564 C   0  0  0  0  0  0  0  0  0  0  0  0
    8.7421   -5.1412   16.3650 C   0  0  0  0  0  0  0  0  0  0  0  0
   11.4353   -2.9204   17.8044 C   0  0  0  0  0  0  0  0  0  0  0  0
   11.1529   -4.3028   22.1277 C   0  0  0  0  0  0  0  0  0  0  0  0
   11.1290   -4.8502   19.8052 C   0  0  0  0  0  0  0  0  0  0  0  0
   12.4329   -4.2159   24.4224 C   0  0  0  0  0  0  0  0  0  0  0  0
    3.4740   -9.0387   16.5022 C   0  0  0  0  0  0  0  0  0  0  0  0
    6.8384   -7.9290   17.5282 N   0  0  0  0  0  0  0  0  0  0  0  0
    9.4126   -5.9853   18.4899 C   0  0  0  0  0  0  0  0  0  0  0  0
    4.2064  -10.3242   18.3302 C   0  0  0  0  0  0  0  0  0  0  0  0
    9.6599   -4.1551   16.4796 N   0  0  0  0  0  0  0  0  0  0  0  0
    7.0644   -6.4612   15.7375 N   0  0  0  0  0  0  0  0  0  0  0  0
    5.3549   -9.6322   18.3190 C   0  0  0  0  0  0  0  0  0  0  0  0
   10.3704   -4.9638   18.6510 C   0  0  0  0  0  0  0  0  0  0  0  0
    5.5935   -8.6419   17.4234 C   0  0  0  0  0  0  0  0  0  0  0  0
   13.0726   -4.6648   23.3394 O   0  0  0  0  0  0  0  0  0  0  0  0
    8.5955   -6.0705   17.3996 C   0  0  0  0  0  0  0  0  0  0  0  0
    4.6223   -8.3832   16.5030 C   0  0  0  0  0  0  0  0  0  0  0  0
   12.4690   -5.2624   19.9024 C   0  0  0  0  0  0  0  0  0  0  0  0
    3.2548   -9.9919   17.4189 C   0  0  0  0  0  0  0  0  0  0  0  0
   12.4767   -4.7393   22.1790 C   0  0  0  0  0  0  0  0  0  0  0  0
    7.8593   -5.3772   15.3569 N   0  0  0  0  0  0  0  0  0  0  0  0
    7.4412   -6.9038   16.9283 C   0  0  0  0  0  0  0  0  0  0  0  0
  1 21  4  0
  1 23  4  0
  2  5  1  0
  2 13  4  0
  2 16  4  0
  3  6  4  0
  3  7  4  0
  4 13  4  0
  4 19  4  0
  4 24  4  0
  6 23  4  0
  7 16  1  0
  7 21  4  0
  8 18  1  0
  9 20  4  0
  9 22  4  0
 10 17  1  0
 10 25  1  0
 11 16  4  0
 11 19  4  0
 12 15  4  0
 12 22  4  0
 14 24  4  0
 14 25  4  0
 15 17  4  0
 17 20  4  0
 18 23  1  0
 19 25  4  0
M  END
$$$$

 Created by Python create_sdf_string function

 25 28  0  0  0  0  0  0  0  0999 V2000
   13.1533   -5.2399   21.0682 C   0  0  0  0  0  0  0  0  0  0  0  0
   10.4729   -4.0295   17.6135 C   0  0  0  0  0  0  0  0  0  0  0  0
   10.4789   -4.3641   20.9564 C   0  0  0  0  0  0  0  0  0  0  0  0
    8.7421   -5.1412   16.3650 C   0  0  0  0  0  0  0  0  0  0  0  0
   11.4353   -2.9204   17.8044 C   0  0  0  0  0  0  0  0  0  0  0  0
   11.1529   -4.3028   22.1277 C   0  0  0  0  0  0  0  0  0  0  0  0
   11.1290   -4.8502   19.8052 C   0  0  0  0  0  0  0  0  0  0  0  0
   12.4329   -4.2159   24.4224 C   0  0  0  0  0  0  0  0  0  0  0  0
    3.4740   -9.0387   16.5022 C   0  0  0  0  0  0  0  0  0  0  0  0
    6.8384   -7.9290   17.5282 N   0  0  0  0  0  0  0  0  0  0  0  0
    9.4126   -5.9853   18.4899 C   0  0  0  0  0  0  0  0  0  0  0  0
    4.2064  -10.3242   18.3302 C   0  0  0  0  0  0  0  0  0  0  0  0
    9.6599   -4.1551   16.4796 N   0  0  0  0  0  0  0  0  0  0  0  0
    7.0644   -6.4612   15.7375 N   0  0  0  0  0  0  0  0  0  0  0  0
    5.3549   -9.6322   18.3190 C   0  0  0  0  0  0  0  0  0  0  0  0
   10.3704   -4.9638   18.6510 C   0  0  0  0  0  0  0  0  0  0  0  0
    5.5935   -8.6419   17.4234 C   0  0  0  0  0  0  0  0  0  0  0  0
   13.0726   -4.6648   23.3394 O   0  0  0  0  0  0  0  0  0  0  0  0
    8.5955   -6.0705   17.3996 C   0  0  0  0  0  0  0  0  0  0  0  0
    4.6223   -8.3832   16.5030 C   0  0  0  0  0  0  0  0  0  0  0  0
   12.4690   -5.2624   19.9024 C   0  0  0  0  0  0  0  0  0  0  0  0
    3.2548   -9.9919   17.4189 C   0  0  0  0  0  0  0  0  0  0  0  0
   12.4767   -4.7393   22.1790 C   0  0  0  0  0  0  0  0  0  0  0  0
    7.8593   -5.3772   15.3569 N   0  0  0  0  0  0  0  0  0  0  0  0
    7.4412   -6.9038   16.9283 C   0  0  0  0  0  0  0  0  0  0  0  0
  1 21  4  0
  1 23  4  0
  2  5  1  0
  2 13  4  0
  2 16  4  0
  3  6  4  0
  3  7  4  0
  4 13  4  0
  4 19  4  0
  4 24  4  0
  6 23  4  0
  7 16  1  0
  7 21  4  0
  8 18  1  0
  9 20  4  0
  9 22  4  0
 10 17  1  0
 10 25  1  0
 11 16  4  0
 11 19  4  0
 12 15  4  0
 12 22  4  0
 14 24  4  0
 14 25  4  0
 15 17  4  0
 17 20  4  0
 18 23  1  0
 19 25  4  0
M  END
$$$$

 Created by Python create_sdf_string function

 25 28  0  0  0  0  0  0  0  0999 V2000
   13.1533   -5.2399   21.0682 C   0  0  0  0  0  0  0  0  0  0  0  0
   10.4729   -4.0295   17.6135 C   0  0  0  0  0  0  0  0  0  0  0  0
   10.4789   -4.3641   20.9564 C   0  0  0  0  0  0  0  0  0  0  0  0
    8.7421   -5.1412   16.3650 C   0  0  0  0  0  0  0  0  0  0  0  0
   11.4353   -2.9204   17.8044 C   0  0  0  0  0  0  0  0  0  0  0  0
   11.1529   -4.3028   22.1277 C   0  0  0  0  0  0  0  0  0  0  0  0
   11.1290   -4.8502   19.8052 C   0  0  0  0  0  0  0  0  0  0  0  0
   12.4329   -4.2159   24.4224 C   0  0  0  0  0  0  0  0  0  0  0  0
    3.4740   -9.0387   16.5022 C   0  0  0  0  0  0  0  0  0  0  0  0
    6.8384   -7.9290   17.5282 N   0  0  0  0  0  0  0  0  0  0  0  0
    9.4126   -5.9853   18.4899 C   0  0  0  0  0  0  0  0  0  0  0  0
    4.2064  -10.3242   18.3302 C   0  0  0  0  0  0  0  0  0  0  0  0
    9.6599   -4.1551   16.4796 N   0  0  0  0  0  0  0  0  0  0  0  0
    7.0644   -6.4612   15.7375 N   0  0  0  0  0  0  0  0  0  0  0  0
    5.3549   -9.6322   18.3190 C   0  0  0  0  0  0  0  0  0  0  0  0
   10.3704   -4.9638   18.6510 C   0  0  0  0  0  0  0  0  0  0  0  0
    5.5935   -8.6419   17.4234 C   0  0  0  0  0  0  0  0  0  0  0  0
   13.0726   -4.6648   23.3394 O   0  0  0  0  0  0  0  0  0  0  0  0
    8.5955   -6.0705   17.3996 C   0  0  0  0  0  0  0  0  0  0  0  0
    4.6223   -8.3832   16.5030 C   0  0  0  0  0  0  0  0  0  0  0  0
   12.4690   -5.2624   19.9024 C   0  0  0  0  0  0  0  0  0  0  0  0
    3.2548   -9.9919   17.4189 C   0  0  0  0  0  0  0  0  0  0  0  0
   12.4767   -4.7393   22.1790 C   0  0  0  0  0  0  0  0  0  0  0  0
    7.8593   -5.3772   15.3569 N   0  0  0  0  0  0  0  0  0  0  0  0
    7.4412   -6.9038   16.9283 C   0  0  0  0  0  0  0  0  0  0  0  0
  1 21  4  0
  1 23  4  0
  2  5  1  0
  2 13  4  0
  2 16  4  0
  3  6  4  0
  3  7  4  0
  4 13  4  0
  4 19  4  0
  4 24  4  0
  6 23  4  0
  7 16  1  0
  7 21  4  0
  8 18  1  0
  9 20  4  0
  9 22  4  0
 10 17  1  0
 10 25  1  0
 11 16  4  0
 11 19  4  0
 12 15  4  0
 12 22  4  0
 14 24  4  0
 14 25  4  0
 15 17  4  0
 17 20  4  0
 18 23  1  0
 19 25  4  0
M  END
$$$$

 Created by Python create_sdf_string function

 25 28  0  0  0  0  0  0  0  0999 V2000
   13.1533   -5.2399   21.0682 C   0  0  0  0  0  0  0  0  0  0  0  0
   10.4729   -4.0295   17.6135 C   0  0  0  0  0  0  0  0  0  0  0  0
   10.4789   -4.3641   20.9564 C   0  0  0  0  0  0  0  0  0  0  0  0
    8.7421   -5.1412   16.3650 C   0  0  0  0  0  0  0  0  0  0  0  0
   11.4353   -2.9204   17.8044 C   0  0  0  0  0  0  0  0  0  0  0  0
   11.1529   -4.3028   22.1277 C   0  0  0  0  0  0  0  0  0  0  0  0
   11.1290   -4.8502   19.8052 C   0  0  0  0  0  0  0  0  0  0  0  0
   12.4329   -4.2159   24.4224 C   0  0  0  0  0  0  0  0  0  0  0  0
    3.4740   -9.0387   16.5022 C   0  0  0  0  0  0  0  0  0  0  0  0
    6.8384   -7.9290   17.5282 N   0  0  0  0  0  0  0  0  0  0  0  0
    9.4126   -5.9853   18.4899 C   0  0  0  0  0  0  0  0  0  0  0  0
    4.2064  -10.3242   18.3302 C   0  0  0  0  0  0  0  0  0  0  0  0
    9.6599   -4.1551   16.4796 N   0  0  0  0  0  0  0  0  0  0  0  0
    7.0644   -6.4612   15.7375 N   0  0  0  0  0  0  0  0  0  0  0  0
    5.3549   -9.6322   18.3190 C   0  0  0  0  0  0  0  0  0  0  0  0
   10.3704   -4.9638   18.6510 C   0  0  0  0  0  0  0  0  0  0  0  0
    5.5935   -8.6419   17.4234 C   0  0  0  0  0  0  0  0  0  0  0  0
   13.0726   -4.6648   23.3394 O   0  0  0  0  0  0  0  0  0  0  0  0
    8.5955   -6.0705   17.3996 C   0  0  0  0  0  0  0  0  0  0  0  0
    4.6223   -8.3832   16.5030 C   0  0  0  0  0  0  0  0  0  0  0  0
   12.4690   -5.2624   19.9024 C   0  0  0  0  0  0  0  0  0  0  0  0
    3.2548   -9.9919   17.4189 C   0  0  0  0  0  0  0  0  0  0  0  0
   12.4767   -4.7393   22.1790 C   0  0  0  0  0  0  0  0  0  0  0  0
    7.8593   -5.3772   15.3569 N   0  0  0  0  0  0  0  0  0  0  0  0
    7.4412   -6.9038   16.9283 C   0  0  0  0  0  0  0  0  0  0  0  0
  1 21  4  0
  1 23  4  0
  2  5  1  0
  2 13  4  0
  2 16  4  0
  3  6  4  0
  3  7  4  0
  4 13  4  0
  4 19  4  0
  4 24  4  0
  6 23  4  0
  7 16  1  0
  7 21  4  0
  8 18  1  0
  9 20  4  0
  9 22  4  0
 10 17  1  0
 10 25  1  0
 11 16  4  0
 11 19  4  0
 12 15  4  0
 12 22  4  0
 14 24  4  0
 14 25  4  0
 15 17  4  0
 17 20  4  0
 18 23  1  0
 19 25  4  0
M  END
$$$$

 Created by Python create_sdf_string function

 25 28  0  0  0  0  0  0  0  0999 V2000
   13.1533   -5.2399   21.0682 C   0  0  0  0  0  0  0  0  0  0  0  0
   10.4729   -4.0295   17.6135 C   0  0  0  0  0  0  0  0  0  0  0  0
   10.4789   -4.3641   20.9564 C   0  0  0  0  0  0  0  0  0  0  0  0
    8.7421   -5.1412   16.3650 C   0  0  0  0  0  0  0  0  0  0  0  0
   11.4353   -2.9204   17.8044 C   0  0  0  0  0  0  0  0  0  0  0  0
   11.1529   -4.3028   22.1277 C   0  0  0  0  0  0  0  0  0  0  0  0
   11.1290   -4.8502   19.8052 C   0  0  0  0  0  0  0  0  0  0  0  0
   12.4329   -4.2159   24.4224 C   0  0  0  0  0  0  0  0  0  0  0  0
    3.4740   -9.0387   16.5022 C   0  0  0  0  0  0  0  0  0  0  0  0
    6.8384   -7.9290   17.5282 N   0  0  0  0  0  0  0  0  0  0  0  0
    9.4126   -5.9853   18.4899 C   0  0  0  0  0  0  0  0  0  0  0  0
    4.2064  -10.3242   18.3302 C   0  0  0  0  0  0  0  0  0  0  0  0
    9.6599   -4.1551   16.4796 N   0  0  0  0  0  0  0  0  0  0  0  0
    7.0644   -6.4612   15.7375 N   0  0  0  0  0  0  0  0  0  0  0  0
    5.3549   -9.6322   18.3190 C   0  0  0  0  0  0  0  0  0  0  0  0
   10.3704   -4.9638   18.6510 C   0  0  0  0  0  0  0  0  0  0  0  0
    5.5935   -8.6419   17.4234 C   0  0  0  0  0  0  0  0  0  0  0  0
   13.0726   -4.6648   23.3394 O   0  0  0  0  0  0  0  0  0  0  0  0
    8.5955   -6.0705   17.3996 C   0  0  0  0  0  0  0  0  0  0  0  0
    4.6223   -8.3832   16.5030 C   0  0  0  0  0  0  0  0  0  0  0  0
   12.4690   -5.2624   19.9024 C   0  0  0  0  0  0  0  0  0  0  0  0
    3.2548   -9.9919   17.4189 C   0  0  0  0  0  0  0  0  0  0  0  0
   12.4767   -4.7393   22.1790 C   0  0  0  0  0  0  0  0  0  0  0  0
    7.8593   -5.3772   15.3569 N   0  0  0  0  0  0  0  0  0  0  0  0
    7.4412   -6.9038   16.9283 C   0  0  0  0  0  0  0  0  0  0  0  0
  1 21  4  0
  1 23  4  0
  2  5  1  0
  2 13  4  0
  2 16  4  0
  3  6  4  0
  3  7  4  0
  4 13  4  0
  4 19  4  0
  4 24  4  0
  6 23  4  0
  7 16  1  0
  7 21  4  0
  8 18  1  0
  9 20  4  0
  9 22  4  0
 10 17  1  0
 10 25  1  0
 11 16  4  0
 11 19  4  0
 12 15  4  0
 12 22  4  0
 14 24  4  0
 14 25  4  0
 15 17  4  0
 17 20  4  0
 18 23  1  0
 19 25  4  0
M  END
$$$$

 Created by Python create_sdf_string function

 25 28  0  0  0  0  0  0  0  0999 V2000
   13.1533   -5.2399   21.0682 C   0  0  0  0  0  0  0  0  0  0  0  0
   10.4729   -4.0295   17.6135 C   0  0  0  0  0  0  0  0  0  0  0  0
   10.4789   -4.3641   20.9564 C   0  0  0  0  0  0  0  0  0  0  0  0
    8.7421   -5.1412   16.3650 C   0  0  0  0  0  0  0  0  0  0  0  0
   11.4353   -2.9204   17.8044 C   0  0  0  0  0  0  0  0  0  0  0  0
   11.1529   -4.3028   22.1277 C   0  0  0  0  0  0  0  0  0  0  0  0
   11.1290   -4.8502   19.8052 C   0  0  0  0  0  0  0  0  0  0  0  0
   12.4329   -4.2159   24.4224 C   0  0  0  0  0  0  0  0  0  0  0  0
    3.4740   -9.0387   16.5022 C   0  0  0  0  0  0  0  0  0  0  0  0
    6.8384   -7.9290   17.5282 N   0  0  0  0  0  0  0  0  0  0  0  0
    9.4126   -5.9853   18.4899 C   0  0  0  0  0  0  0  0  0  0  0  0
    4.2064  -10.3242   18.3302 C   0  0  0  0  0  0  0  0  0  0  0  0
    9.6599   -4.1551   16.4796 N   0  0  0  0  0  0  0  0  0  0  0  0
    7.0644   -6.4612   15.7375 N   0  0  0  0  0  0  0  0  0  0  0  0
    5.3549   -9.6322   18.3190 C   0  0  0  0  0  0  0  0  0  0  0  0
   10.3704   -4.9638   18.6510 C   0  0  0  0  0  0  0  0  0  0  0  0
    5.5935   -8.6419   17.4234 C   0  0  0  0  0  0  0  0  0  0  0  0
   13.0726   -4.6648   23.3394 O   0  0  0  0  0  0  0  0  0  0  0  0
    8.5955   -6.0705   17.3996 C   0  0  0  0  0  0  0  0  0  0  0  0
    4.6223   -8.3832   16.5030 C   0  0  0  0  0  0  0  0  0  0  0  0
   12.4690   -5.2624   19.9024 C   0  0  0  0  0  0  0  0  0  0  0  0
    3.2548   -9.9919   17.4189 C   0  0  0  0  0  0  0  0  0  0  0  0
   12.4767   -4.7393   22.1790 C   0  0  0  0  0  0  0  0  0  0  0  0
    7.8593   -5.3772   15.3569 N   0  0  0  0  0  0  0  0  0  0  0  0
    7.4412   -6.9038   16.9283 C   0  0  0  0  0  0  0  0  0  0  0  0
  1 21  4  0
  1 23  4  0
  2  5  1  0
  2 13  4  0
  2 16  4  0
  3  6  4  0
  3  7  4  0
  4 13  4  0
  4 19  4  0
  4 24  4  0
  6 23  4  0
  7 16  1  0
  7 21  4  0
  8 18  1  0
  9 20  4  0
  9 22  4  0
 10 17  1  0
 10 25  1  0
 11 16  4  0
 11 19  4  0
 12 15  4  0
 12 22  4  0
 14 24  4  0
 14 25  4  0
 15 17  4  0
 17 20  4  0
 18 23  1  0
 19 25  4  0
M  END
$$$$

 Created by Python create_sdf_string function

 25 28  0  0  0  0  0  0  0  0999 V2000
   13.1533   -5.2399   21.0682 C   0  0  0  0  0  0  0  0  0  0  0  0
   10.4729   -4.0295   17.6135 C   0  0  0  0  0  0  0  0  0  0  0  0
   10.4789   -4.3641   20.9564 C   0  0  0  0  0  0  0  0  0  0  0  0
    8.7421   -5.1412   16.3650 C   0  0  0  0  0  0  0  0  0  0  0  0
   11.4353   -2.9204   17.8044 C   0  0  0  0  0  0  0  0  0  0  0  0
   11.1529   -4.3028   22.1277 C   0  0  0  0  0  0  0  0  0  0  0  0
   11.1290   -4.8502   19.8052 C   0  0  0  0  0  0  0  0  0  0  0  0
   12.4329   -4.2159   24.4224 C   0  0  0  0  0  0  0  0  0  0  0  0
    3.4740   -9.0387   16.5022 C   0  0  0  0  0  0  0  0  0  0  0  0
    6.8384   -7.9290   17.5282 N   0  0  0  0  0  0  0  0  0  0  0  0
    9.4126   -5.9853   18.4899 C   0  0  0  0  0  0  0  0  0  0  0  0
    4.2064  -10.3242   18.3302 C   0  0  0  0  0  0  0  0  0  0  0  0
    9.6599   -4.1551   16.4796 N   0  0  0  0  0  0  0  0  0  0  0  0
    7.0644   -6.4612   15.7375 N   0  0  0  0  0  0  0  0  0  0  0  0
    5.3549   -9.6322   18.3190 C   0  0  0  0  0  0  0  0  0  0  0  0
   10.3704   -4.9638   18.6510 C   0  0  0  0  0  0  0  0  0  0  0  0
    5.5935   -8.6419   17.4234 C   0  0  0  0  0  0  0  0  0  0  0  0
   13.0726   -4.6648   23.3394 O   0  0  0  0  0  0  0  0  0  0  0  0
    8.5955   -6.0705   17.3996 C   0  0  0  0  0  0  0  0  0  0  0  0
    4.6223   -8.3832   16.5030 C   0  0  0  0  0  0  0  0  0  0  0  0
   12.4690   -5.2624   19.9024 C   0  0  0  0  0  0  0  0  0  0  0  0
    3.2548   -9.9919   17.4189 C   0  0  0  0  0  0  0  0  0  0  0  0
   12.4767   -4.7393   22.1790 C   0  0  0  0  0  0  0  0  0  0  0  0
    7.8593   -5.3772   15.3569 N   0  0  0  0  0  0  0  0  0  0  0  0
    7.4412   -6.9038   16.9283 C   0  0  0  0  0  0  0  0  0  0  0  0
  1 21  4  0
  1 23  4  0
  2  5  1  0
  2 13  4  0
  2 16  4  0
  3  6  4  0
  3  7  4  0
  4 13  4  0
  4 19  4  0
  4 24  4  0
  6 23  4  0
  7 16  1  0
  7 21  4  0
  8 18  1  0
  9 20  4  0
  9 22  4  0
 10 17  1  0
 10 25  1  0
 11 16  4  0
 11 19  4  0
 12 15  4  0
 12 22  4  0
 14 24  4  0
 14 25  4  0
 15 17  4  0
 17 20  4  0
 18 23  1  0
 19 25  4  0
M  END
$$$$

 Created by Python create_sdf_string function

 25 28  0  0  0  0  0  0  0  0999 V2000
   13.1533   -5.2399   21.0682 C   0  0  0  0  0  0  0  0  0  0  0  0
   10.4729   -4.0295   17.6135 C   0  0  0  0  0  0  0  0  0  0  0  0
   10.4789   -4.3641   20.9564 C   0  0  0  0  0  0  0  0  0  0  0  0
    8.7421   -5.1412   16.3650 C   0  0  0  0  0  0  0  0  0  0  0  0
   11.4353   -2.9204   17.8044 C   0  0  0  0  0  0  0  0  0  0  0  0
   11.1529   -4.3028   22.1277 C   0  0  0  0  0  0  0  0  0  0  0  0
   11.1290   -4.8502   19.8052 C   0  0  0  0  0  0  0  0  0  0  0  0
   12.4329   -4.2159   24.4224 C   0  0  0  0  0  0  0  0  0  0  0  0
    3.4740   -9.0387   16.5022 C   0  0  0  0  0  0  0  0  0  0  0  0
    6.8384   -7.9290   17.5282 N   0  0  0  0  0  0  0  0  0  0  0  0
    9.4126   -5.9853   18.4899 C   0  0  0  0  0  0  0  0  0  0  0  0
    4.2064  -10.3242   18.3302 C   0  0  0  0  0  0  0  0  0  0  0  0
    9.6599   -4.1551   16.4796 N   0  0  0  0  0  0  0  0  0  0  0  0
    7.0644   -6.4612   15.7375 N   0  0  0  0  0  0  0  0  0  0  0  0
    5.3549   -9.6322   18.3190 C   0  0  0  0  0  0  0  0  0  0  0  0
   10.3704   -4.9638   18.6510 C   0  0  0  0  0  0  0  0  0  0  0  0
    5.5935   -8.6419   17.4234 C   0  0  0  0  0  0  0  0  0  0  0  0
   13.0726   -4.6648   23.3394 O   0  0  0  0  0  0  0  0  0  0  0  0
    8.5955   -6.0705   17.3996 C   0  0  0  0  0  0  0  0  0  0  0  0
    4.6223   -8.3832   16.5030 C   0  0  0  0  0  0  0  0  0  0  0  0
   12.4690   -5.2624   19.9024 C   0  0  0  0  0  0  0  0  0  0  0  0
    3.2548   -9.9919   17.4189 C   0  0  0  0  0  0  0  0  0  0  0  0
   12.4767   -4.7393   22.1790 C   0  0  0  0  0  0  0  0  0  0  0  0
    7.8593   -5.3772   15.3569 N   0  0  0  0  0  0  0  0  0  0  0  0
    7.4412   -6.9038   16.9283 C   0  0  0  0  0  0  0  0  0  0  0  0
  1 21  4  0
  1 23  4  0
  2  5  1  0
  2 13  4  0
  2 16  4  0
  3  6  4  0
  3  7  4  0
  4 13  4  0
  4 19  4  0
  4 24  4  0
  6 23  4  0
  7 16  1  0
  7 21  4  0
  8 18  1  0
  9 20  4  0
  9 22  4  0
 10 17  1  0
 10 25  1  0
 11 16  4  0
 11 19  4  0
 12 15  4  0
 12 22  4  0
 14 24  4  0
 14 25  4  0
 15 17  4  0
 17 20  4  0
 18 23  1  0
 19 25  4  0
M  END
$$$$

 Created by Python create_sdf_string function

 25 28  0  0  0  0  0  0  0  0999 V2000
   13.1533   -5.2399   21.0682 C   0  0  0  0  0  0  0  0  0  0  0  0
   10.4729   -4.0295   17.6135 C   0  0  0  0  0  0  0  0  0  0  0  0
   10.4789   -4.3641   20.9564 C   0  0  0  0  0  0  0  0  0  0  0  0
    8.7421   -5.1412   16.3650 C   0  0  0  0  0  0  0  0  0  0  0  0
   11.4353   -2.9204   17.8044 C   0  0  0  0  0  0  0  0  0  0  0  0
   11.1529   -4.3028   22.1277 C   0  0  0  0  0  0  0  0  0  0  0  0
   11.1290   -4.8502   19.8052 C   0  0  0  0  0  0  0  0  0  0  0  0
   12.4329   -4.2159   24.4224 C   0  0  0  0  0  0  0  0  0  0  0  0
    3.4740   -9.0387   16.5022 C   0  0  0  0  0  0  0  0  0  0  0  0
    6.8384   -7.9290   17.5282 N   0  0  0  0  0  0  0  0  0  0  0  0
    9.4126   -5.9853   18.4899 C   0  0  0  0  0  0  0  0  0  0  0  0
    4.2064  -10.3242   18.3302 C   0  0  0  0  0  0  0  0  0  0  0  0
    9.6599   -4.1551   16.4796 N   0  0  0  0  0  0  0  0  0  0  0  0
    7.0644   -6.4612   15.7375 N   0  0  0  0  0  0  0  0  0  0  0  0
    5.3549   -9.6322   18.3190 C   0  0  0  0  0  0  0  0  0  0  0  0
   10.3704   -4.9638   18.6510 C   0  0  0  0  0  0  0  0  0  0  0  0
    5.5935   -8.6419   17.4234 C   0  0  0  0  0  0  0  0  0  0  0  0
   13.0726   -4.6648   23.3394 O   0  0  0  0  0  0  0  0  0  0  0  0
    8.5955   -6.0705   17.3996 C   0  0  0  0  0  0  0  0  0  0  0  0
    4.6223   -8.3832   16.5030 C   0  0  0  0  0  0  0  0  0  0  0  0
   12.4690   -5.2624   19.9024 C   0  0  0  0  0  0  0  0  0  0  0  0
    3.2548   -9.9919   17.4189 C   0  0  0  0  0  0  0  0  0  0  0  0
   12.4767   -4.7393   22.1790 C   0  0  0  0  0  0  0  0  0  0  0  0
    7.8593   -5.3772   15.3569 N   0  0  0  0  0  0  0  0  0  0  0  0
    7.4412   -6.9038   16.9283 C   0  0  0  0  0  0  0  0  0  0  0  0
  1 21  4  0
  1 23  4  0
  2  5  1  0
  2 13  4  0
  2 16  4  0
  3  6  4  0
  3  7  4  0
  4 13  4  0
  4 19  4  0
  4 24  4  0
  6 23  4  0
  7 16  1  0
  7 21  4  0
  8 18  1  0
  9 20  4  0
  9 22  4  0
 10 17  1  0
 10 25  1  0
 11 16  4  0
 11 19  4  0
 12 15  4  0
 12 22  4  0
 14 24  4  0
 14 25  4  0
 15 17  4  0
 17 20  4  0
 18 23  1  0
 19 25  4  0
M  END
$$$$

 Created by Python create_sdf_string function

 25 28  0  0  0  0  0  0  0  0999 V2000
   13.1533   -5.2399   21.0682 C   0  0  0  0  0  0  0  0  0  0  0  0
   10.4729   -4.0295   17.6135 C   0  0  0  0  0  0  0  0  0  0  0  0
   10.4789   -4.3641   20.9564 C   0  0  0  0  0  0  0  0  0  0  0  0
    8.7421   -5.1412   16.3650 C   0  0  0  0  0  0  0  0  0  0  0  0
   11.4353   -2.9204   17.8044 C   0  0  0  0  0  0  0  0  0  0  0  0
   11.1529   -4.3028   22.1277 C   0  0  0  0  0  0  0  0  0  0  0  0
   11.1290   -4.8502   19.8052 C   0  0  0  0  0  0  0  0  0  0  0  0
   12.4329   -4.2159   24.4224 C   0  0  0  0  0  0  0  0  0  0  0  0
    3.4740   -9.0387   16.5022 C   0  0  0  0  0  0  0  0  0  0  0  0
    6.8384   -7.9290   17.5282 N   0  0  0  0  0  0  0  0  0  0  0  0
    9.4126   -5.9853   18.4899 C   0  0  0  0  0  0  0  0  0  0  0  0
    4.2064  -10.3242   18.3302 C   0  0  0  0  0  0  0  0  0  0  0  0
    9.6599   -4.1551   16.4796 N   0  0  0  0  0  0  0  0  0  0  0  0
    7.0644   -6.4612   15.7375 N   0  0  0  0  0  0  0  0  0  0  0  0
    5.3549   -9.6322   18.3190 C   0  0  0  0  0  0  0  0  0  0  0  0
   10.3704   -4.9638   18.6510 C   0  0  0  0  0  0  0  0  0  0  0  0
    5.5935   -8.6419   17.4234 C   0  0  0  0  0  0  0  0  0  0  0  0
   13.0726   -4.6648   23.3394 O   0  0  0  0  0  0  0  0  0  0  0  0
    8.5955   -6.0705   17.3996 C   0  0  0  0  0  0  0  0  0  0  0  0
    4.6223   -8.3832   16.5030 C   0  0  0  0  0  0  0  0  0  0  0  0
   12.4690   -5.2624   19.9024 C   0  0  0  0  0  0  0  0  0  0  0  0
    3.2548   -9.9919   17.4189 C   0  0  0  0  0  0  0  0  0  0  0  0
   12.4767   -4.7393   22.1790 C   0  0  0  0  0  0  0  0  0  0  0  0
    7.8593   -5.3772   15.3569 N   0  0  0  0  0  0  0  0  0  0  0  0
    7.4412   -6.9038   16.9283 C   0  0  0  0  0  0  0  0  0  0  0  0
  1 21  4  0
  1 23  4  0
  2  5  1  0
  2 13  4  0
  2 16  4  0
  3  6  4  0
  3  7  4  0
  4 13  4  0
  4 19  4  0
  4 24  4  0
  6 23  4  0
  7 16  1  0
  7 21  4  0
  8 18  1  0
  9 20  4  0
  9 22  4  0
 10 17  1  0
 10 25  1  0
 11 16  4  0
 11 19  4  0
 12 15  4  0
 12 22  4  0
 14 24  4  0
 14 25  4  0
 15 17  4  0
 17 20  4  0
 18 23  1  0
 19 25  4  0
M  END
$$$$

 Created by Python create_sdf_string function

 25 28  0  0  0  0  0  0  0  0999 V2000
   13.1533   -5.2399   21.0682 C   0  0  0  0  0  0  0  0  0  0  0  0
   10.4729   -4.0295   17.6135 C   0  0  0  0  0  0  0  0  0  0  0  0
   10.4789   -4.3641   20.9564 C   0  0  0  0  0  0  0  0  0  0  0  0
    8.7421   -5.1412   16.3650 C   0  0  0  0  0  0  0  0  0  0  0  0
   11.4353   -2.9204   17.8044 C   0  0  0  0  0  0  0  0  0  0  0  0
   11.1529   -4.3028   22.1277 C   0  0  0  0  0  0  0  0  0  0  0  0
   11.1290   -4.8502   19.8052 C   0  0  0  0  0  0  0  0  0  0  0  0
   12.4329   -4.2159   24.4224 C   0  0  0  0  0  0  0  0  0  0  0  0
    3.4740   -9.0387   16.5022 C   0  0  0  0  0  0  0  0  0  0  0  0
    6.8384   -7.9290   17.5282 N   0  0  0  0  0  0  0  0  0  0  0  0
    9.4126   -5.9853   18.4899 C   0  0  0  0  0  0  0  0  0  0  0  0
    4.2064  -10.3242   18.3302 C   0  0  0  0  0  0  0  0  0  0  0  0
    9.6599   -4.1551   16.4796 N   0  0  0  0  0  0  0  0  0  0  0  0
    7.0644   -6.4612   15.7375 N   0  0  0  0  0  0  0  0  0  0  0  0
    5.3549   -9.6322   18.3190 C   0  0  0  0  0  0  0  0  0  0  0  0
   10.3704   -4.9638   18.6510 C   0  0  0  0  0  0  0  0  0  0  0  0
    5.5935   -8.6419   17.4234 C   0  0  0  0  0  0  0  0  0  0  0  0
   13.0726   -4.6648   23.3394 O   0  0  0  0  0  0  0  0  0  0  0  0
    8.5955   -6.0705   17.3996 C   0  0  0  0  0  0  0  0  0  0  0  0
    4.6223   -8.3832   16.5030 C   0  0  0  0  0  0  0  0  0  0  0  0
   12.4690   -5.2624   19.9024 C   0  0  0  0  0  0  0  0  0  0  0  0
    3.2548   -9.9919   17.4189 C   0  0  0  0  0  0  0  0  0  0  0  0
   12.4767   -4.7393   22.1790 C   0  0  0  0  0  0  0  0  0  0  0  0
    7.8593   -5.3772   15.3569 N   0  0  0  0  0  0  0  0  0  0  0  0
    7.4412   -6.9038   16.9283 C   0  0  0  0  0  0  0  0  0  0  0  0
  1 21  4  0
  1 23  4  0
  2  5  1  0
  2 13  4  0
  2 16  4  0
  3  6  4  0
  3  7  4  0
  4 13  4  0
  4 19  4  0
  4 24  4  0
  6 23  4  0
  7 16  1  0
  7 21  4  0
  8 18  1  0
  9 20  4  0
  9 22  4  0
 10 17  1  0
 10 25  1  0
 11 16  4  0
 11 19  4  0
 12 15  4  0
 12 22  4  0
 14 24  4  0
 14 25  4  0
 15 17  4  0
 17 20  4  0
 18 23  1  0
 19 25  4  0
M  END
$$$$

 Created by Python create_sdf_string function

 25 28  0  0  0  0  0  0  0  0999 V2000
   13.1533   -5.2399   21.0682 C   0  0  0  0  0  0  0  0  0  0  0  0
   10.4729   -4.0295   17.6135 C   0  0  0  0  0  0  0  0  0  0  0  0
   10.4789   -4.3641   20.9564 C   0  0  0  0  0  0  0  0  0  0  0  0
    8.7421   -5.1412   16.3650 C   0  0  0  0  0  0  0  0  0  0  0  0
   11.4353   -2.9204   17.8044 C   0  0  0  0  0  0  0  0  0  0  0  0
   11.1529   -4.3028   22.1277 C   0  0  0  0  0  0  0  0  0  0  0  0
   11.1290   -4.8502   19.8052 C   0  0  0  0  0  0  0  0  0  0  0  0
   12.4329   -4.2159   24.4224 C   0  0  0  0  0  0  0  0  0  0  0  0
    3.4740   -9.0387   16.5022 C   0  0  0  0  0  0  0  0  0  0  0  0
    6.8384   -7.9290   17.5282 N   0  0  0  0  0  0  0  0  0  0  0  0
    9.4126   -5.9853   18.4899 C   0  0  0  0  0  0  0  0  0  0  0  0
    4.2064  -10.3242   18.3302 C   0  0  0  0  0  0  0  0  0  0  0  0
    9.6599   -4.1551   16.4796 N   0  0  0  0  0  0  0  0  0  0  0  0
    7.0644   -6.4612   15.7375 N   0  0  0  0  0  0  0  0  0  0  0  0
    5.3549   -9.6322   18.3190 C   0  0  0  0  0  0  0  0  0  0  0  0
   10.3704   -4.9638   18.6510 C   0  0  0  0  0  0  0  0  0  0  0  0
    5.5935   -8.6419   17.4234 C   0  0  0  0  0  0  0  0  0  0  0  0
   13.0726   -4.6648   23.3394 O   0  0  0  0  0  0  0  0  0  0  0  0
    8.5955   -6.0705   17.3996 C   0  0  0  0  0  0  0  0  0  0  0  0
    4.6223   -8.3832   16.5030 C   0  0  0  0  0  0  0  0  0  0  0  0
   12.4690   -5.2624   19.9024 C   0  0  0  0  0  0  0  0  0  0  0  0
    3.2548   -9.9919   17.4189 C   0  0  0  0  0  0  0  0  0  0  0  0
   12.4767   -4.7393   22.1790 C   0  0  0  0  0  0  0  0  0  0  0  0
    7.8593   -5.3772   15.3569 N   0  0  0  0  0  0  0  0  0  0  0  0
    7.4412   -6.9038   16.9283 C   0  0  0  0  0  0  0  0  0  0  0  0
  1 21  4  0
  1 23  4  0
  2  5  1  0
  2 13  4  0
  2 16  4  0
  3  6  4  0
  3  7  4  0
  4 13  4  0
  4 19  4  0
  4 24  4  0
  6 23  4  0
  7 16  1  0
  7 21  4  0
  8 18  1  0
  9 20  4  0
  9 22  4  0
 10 17  1  0
 10 25  1  0
 11 16  4  0
 11 19  4  0
 12 15  4  0
 12 22  4  0
 14 24  4  0
 14 25  4  0
 15 17  4  0
 17 20  4  0
 18 23  1  0
 19 25  4  0
M  END
$$$$

 Created by Python create_sdf_string function

 25 28  0  0  0  0  0  0  0  0999 V2000
   13.1533   -5.2399   21.0682 C   0  0  0  0  0  0  0  0  0  0  0  0
   10.4729   -4.0295   17.6135 C   0  0  0  0  0  0  0  0  0  0  0  0
   10.4789   -4.3641   20.9564 C   0  0  0  0  0  0  0  0  0  0  0  0
    8.7421   -5.1412   16.3650 C   0  0  0  0  0  0  0  0  0  0  0  0
   11.4353   -2.9204   17.8044 C   0  0  0  0  0  0  0  0  0  0  0  0
   11.1529   -4.3028   22.1277 C   0  0  0  0  0  0  0  0  0  0  0  0
   11.1290   -4.8502   19.8052 C   0  0  0  0  0  0  0  0  0  0  0  0
   12.4329   -4.2159   24.4224 C   0  0  0  0  0  0  0  0  0  0  0  0
    3.4740   -9.0387   16.5022 C   0  0  0  0  0  0  0  0  0  0  0  0
    6.8384   -7.9290   17.5282 N   0  0  0  0  0  0  0  0  0  0  0  0
    9.4126   -5.9853   18.4899 C   0  0  0  0  0  0  0  0  0  0  0  0
    4.2064  -10.3242   18.3302 C   0  0  0  0  0  0  0  0  0  0  0  0
    9.6599   -4.1551   16.4796 N   0  0  0  0  0  0  0  0  0  0  0  0
    7.0644   -6.4612   15.7375 N   0  0  0  0  0  0  0  0  0  0  0  0
    5.3549   -9.6322   18.3190 C   0  0  0  0  0  0  0  0  0  0  0  0
   10.3704   -4.9638   18.6510 C   0  0  0  0  0  0  0  0  0  0  0  0
    5.5935   -8.6419   17.4234 C   0  0  0  0  0  0  0  0  0  0  0  0
   13.0726   -4.6648   23.3394 O   0  0  0  0  0  0  0  0  0  0  0  0
    8.5955   -6.0705   17.3996 C   0  0  0  0  0  0  0  0  0  0  0  0
    4.6223   -8.3832   16.5030 C   0  0  0  0  0  0  0  0  0  0  0  0
   12.4690   -5.2624   19.9024 C   0  0  0  0  0  0  0  0  0  0  0  0
    3.2548   -9.9919   17.4189 C   0  0  0  0  0  0  0  0  0  0  0  0
   12.4767   -4.7393   22.1790 C   0  0  0  0  0  0  0  0  0  0  0  0
    7.8593   -5.3772   15.3569 N   0  0  0  0  0  0  0  0  0  0  0  0
    7.4412   -6.9038   16.9283 C   0  0  0  0  0  0  0  0  0  0  0  0
  1 21  4  0
  1 23  4  0
  2  5  1  0
  2 13  4  0
  2 16  4  0
  3  6  4  0
  3  7  4  0
  4 13  4  0
  4 19  4  0
  4 24  4  0
  6 23  4  0
  7 16  1  0
  7 21  4  0
  8 18  1  0
  9 20  4  0
  9 22  4  0
 10 17  1  0
 10 25  1  0
 11 16  4  0
 11 19  4  0
 12 15  4  0
 12 22  4  0
 14 24  4  0
 14 25  4  0
 15 17  4  0
 17 20  4  0
 18 23  1  0
 19 25  4  0
M  END
$$$$

 Created by Python create_sdf_string function

 25 28  0  0  0  0  0  0  0  0999 V2000
   13.1533   -5.2399   21.0682 C   0  0  0  0  0  0  0  0  0  0  0  0
   10.4729   -4.0295   17.6135 C   0  0  0  0  0  0  0  0  0  0  0  0
   10.4789   -4.3641   20.9564 C   0  0  0  0  0  0  0  0  0  0  0  0
    8.7421   -5.1412   16.3650 C   0  0  0  0  0  0  0  0  0  0  0  0
   11.4353   -2.9204   17.8044 C   0  0  0  0  0  0  0  0  0  0  0  0
   11.1529   -4.3028   22.1277 C   0  0  0  0  0  0  0  0  0  0  0  0
   11.1290   -4.8502   19.8052 C   0  0  0  0  0  0  0  0  0  0  0  0
   12.4329   -4.2159   24.4224 C   0  0  0  0  0  0  0  0  0  0  0  0
    3.4740   -9.0387   16.5022 C   0  0  0  0  0  0  0  0  0  0  0  0
    6.8384   -7.9290   17.5282 N   0  0  0  0  0  0  0  0  0  0  0  0
    9.4126   -5.9853   18.4899 C   0  0  0  0  0  0  0  0  0  0  0  0
    4.2064  -10.3242   18.3302 C   0  0  0  0  0  0  0  0  0  0  0  0
    9.6599   -4.1551   16.4796 N   0  0  0  0  0  0  0  0  0  0  0  0
    7.0644   -6.4612   15.7375 N   0  0  0  0  0  0  0  0  0  0  0  0
    5.3549   -9.6322   18.3190 C   0  0  0  0  0  0  0  0  0  0  0  0
   10.3704   -4.9638   18.6510 C   0  0  0  0  0  0  0  0  0  0  0  0
    5.5935   -8.6419   17.4234 C   0  0  0  0  0  0  0  0  0  0  0  0
   13.0726   -4.6648   23.3394 O   0  0  0  0  0  0  0  0  0  0  0  0
    8.5955   -6.0705   17.3996 C   0  0  0  0  0  0  0  0  0  0  0  0
    4.6223   -8.3832   16.5030 C   0  0  0  0  0  0  0  0  0  0  0  0
   12.4690   -5.2624   19.9024 C   0  0  0  0  0  0  0  0  0  0  0  0
    3.2548   -9.9919   17.4189 C   0  0  0  0  0  0  0  0  0  0  0  0
   12.4767   -4.7393   22.1790 C   0  0  0  0  0  0  0  0  0  0  0  0
    7.8593   -5.3772   15.3569 N   0  0  0  0  0  0  0  0  0  0  0  0
    7.4412   -6.9038   16.9283 C   0  0  0  0  0  0  0  0  0  0  0  0
  1 21  4  0
  1 23  4  0
  2  5  1  0
  2 13  4  0
  2 16  4  0
  3  6  4  0
  3  7  4  0
  4 13  4  0
  4 19  4  0
  4 24  4  0
  6 23  4  0
  7 16  1  0
  7 21  4  0
  8 18  1  0
  9 20  4  0
  9 22  4  0
 10 17  1  0
 10 25  1  0
 11 16  4  0
 11 19  4  0
 12 15  4  0
 12 22  4  0
 14 24  4  0
 14 25  4  0
 15 17  4  0
 17 20  4  0
 18 23  1  0
 19 25  4  0
M  END
$$$$

 Created by Python create_sdf_string function

 25 28  0  0  0  0  0  0  0  0999 V2000
   13.1533   -5.2399   21.0682 C   0  0  0  0  0  0  0  0  0  0  0  0
   10.4729   -4.0295   17.6135 C   0  0  0  0  0  0  0  0  0  0  0  0
   10.4789   -4.3641   20.9564 C   0  0  0  0  0  0  0  0  0  0  0  0
    8.7421   -5.1412   16.3650 C   0  0  0  0  0  0  0  0  0  0  0  0
   11.4353   -2.9204   17.8044 C   0  0  0  0  0  0  0  0  0  0  0  0
   11.1529   -4.3028   22.1277 C   0  0  0  0  0  0  0  0  0  0  0  0
   11.1290   -4.8502   19.8052 C   0  0  0  0  0  0  0  0  0  0  0  0
   12.4329   -4.2159   24.4224 C   0  0  0  0  0  0  0  0  0  0  0  0
    3.4740   -9.0387   16.5022 C   0  0  0  0  0  0  0  0  0  0  0  0
    6.8384   -7.9290   17.5282 N   0  0  0  0  0  0  0  0  0  0  0  0
    9.4126   -5.9853   18.4899 C   0  0  0  0  0  0  0  0  0  0  0  0
    4.2064  -10.3242   18.3302 C   0  0  0  0  0  0  0  0  0  0  0  0
    9.6599   -4.1551   16.4796 N   0  0  0  0  0  0  0  0  0  0  0  0
    7.0644   -6.4612   15.7375 N   0  0  0  0  0  0  0  0  0  0  0  0
    5.3549   -9.6322   18.3190 C   0  0  0  0  0  0  0  0  0  0  0  0
   10.3704   -4.9638   18.6510 C   0  0  0  0  0  0  0  0  0  0  0  0
    5.5935   -8.6419   17.4234 C   0  0  0  0  0  0  0  0  0  0  0  0
   13.0726   -4.6648   23.3394 O   0  0  0  0  0  0  0  0  0  0  0  0
    8.5955   -6.0705   17.3996 C   0  0  0  0  0  0  0  0  0  0  0  0
    4.6223   -8.3832   16.5030 C   0  0  0  0  0  0  0  0  0  0  0  0
   12.4690   -5.2624   19.9024 C   0  0  0  0  0  0  0  0  0  0  0  0
    3.2548   -9.9919   17.4189 C   0  0  0  0  0  0  0  0  0  0  0  0
   12.4767   -4.7393   22.1790 C   0  0  0  0  0  0  0  0  0  0  0  0
    7.8593   -5.3772   15.3569 N   0  0  0  0  0  0  0  0  0  0  0  0
    7.4412   -6.9038   16.9283 C   0  0  0  0  0  0  0  0  0  0  0  0
  1 21  4  0
  1 23  4  0
  2  5  1  0
  2 13  4  0
  2 16  4  0
  3  6  4  0
  3  7  4  0
  4 13  4  0
  4 19  4  0
  4 24  4  0
  6 23  4  0
  7 16  1  0
  7 21  4  0
  8 18  1  0
  9 20  4  0
  9 22  4  0
 10 17  1  0
 10 25  1  0
 11 16  4  0
 11 19  4  0
 12 15  4  0
 12 22  4  0
 14 24  4  0
 14 25  4  0
 15 17  4  0
 17 20  4  0
 18 23  1  0
 19 25  4  0
M  END
$$$$

 Created by Python create_sdf_string function

 25 28  0  0  0  0  0  0  0  0999 V2000
   13.1533   -5.2399   21.0682 C   0  0  0  0  0  0  0  0  0  0  0  0
   10.4729   -4.0295   17.6135 C   0  0  0  0  0  0  0  0  0  0  0  0
   10.4789   -4.3641   20.9564 C   0  0  0  0  0  0  0  0  0  0  0  0
    8.7421   -5.1412   16.3650 C   0  0  0  0  0  0  0  0  0  0  0  0
   11.4353   -2.9204   17.8044 C   0  0  0  0  0  0  0  0  0  0  0  0
   11.1529   -4.3028   22.1277 C   0  0  0  0  0  0  0  0  0  0  0  0
   11.1290   -4.8502   19.8052 C   0  0  0  0  0  0  0  0  0  0  0  0
   12.4329   -4.2159   24.4224 C   0  0  0  0  0  0  0  0  0  0  0  0
    3.4740   -9.0387   16.5022 C   0  0  0  0  0  0  0  0  0  0  0  0
    6.8384   -7.9290   17.5282 N   0  0  0  0  0  0  0  0  0  0  0  0
    9.4126   -5.9853   18.4899 C   0  0  0  0  0  0  0  0  0  0  0  0
    4.2064  -10.3242   18.3302 C   0  0  0  0  0  0  0  0  0  0  0  0
    9.6599   -4.1551   16.4796 N   0  0  0  0  0  0  0  0  0  0  0  0
    7.0644   -6.4612   15.7375 N   0  0  0  0  0  0  0  0  0  0  0  0
    5.3549   -9.6322   18.3190 C   0  0  0  0  0  0  0  0  0  0  0  0
   10.3704   -4.9638   18.6510 C   0  0  0  0  0  0  0  0  0  0  0  0
    5.5935   -8.6419   17.4234 C   0  0  0  0  0  0  0  0  0  0  0  0
   13.0726   -4.6648   23.3394 O   0  0  0  0  0  0  0  0  0  0  0  0
    8.5955   -6.0705   17.3996 C   0  0  0  0  0  0  0  0  0  0  0  0
    4.6223   -8.3832   16.5030 C   0  0  0  0  0  0  0  0  0  0  0  0
   12.4690   -5.2624   19.9024 C   0  0  0  0  0  0  0  0  0  0  0  0
    3.2548   -9.9919   17.4189 C   0  0  0  0  0  0  0  0  0  0  0  0
   12.4767   -4.7393   22.1790 C   0  0  0  0  0  0  0  0  0  0  0  0
    7.8593   -5.3772   15.3569 N   0  0  0  0  0  0  0  0  0  0  0  0
    7.4412   -6.9038   16.9283 C   0  0  0  0  0  0  0  0  0  0  0  0
  1 21  4  0
  1 23  4  0
  2  5  1  0
  2 13  4  0
  2 16  4  0
  3  6  4  0
  3  7  4  0
  4 13  4  0
  4 19  4  0
  4 24  4  0
  6 23  4  0
  7 16  1  0
  7 21  4  0
  8 18  1  0
  9 20  4  0
  9 22  4  0
 10 17  1  0
 10 25  1  0
 11 16  4  0
 11 19  4  0
 12 15  4  0
 12 22  4  0
 14 24  4  0
 14 25  4  0
 15 17  4  0
 17 20  4  0
 18 23  1  0
 19 25  4  0
M  END
$$$$

 Created by Python create_sdf_string function

 25 28  0  0  0  0  0  0  0  0999 V2000
   13.1533   -5.2399   21.0682 C   0  0  0  0  0  0  0  0  0  0  0  0
   10.4729   -4.0295   17.6135 C   0  0  0  0  0  0  0  0  0  0  0  0
   10.4789   -4.3641   20.9564 C   0  0  0  0  0  0  0  0  0  0  0  0
    8.7421   -5.1412   16.3650 C   0  0  0  0  0  0  0  0  0  0  0  0
   11.4353   -2.9204   17.8044 C   0  0  0  0  0  0  0  0  0  0  0  0
   11.1529   -4.3028   22.1277 C   0  0  0  0  0  0  0  0  0  0  0  0
   11.1290   -4.8502   19.8052 C   0  0  0  0  0  0  0  0  0  0  0  0
   12.4329   -4.2159   24.4224 C   0  0  0  0  0  0  0  0  0  0  0  0
    3.4740   -9.0387   16.5022 C   0  0  0  0  0  0  0  0  0  0  0  0
    6.8384   -7.9290   17.5282 N   0  0  0  0  0  0  0  0  0  0  0  0
    9.4126   -5.9853   18.4899 C   0  0  0  0  0  0  0  0  0  0  0  0
    4.2064  -10.3242   18.3302 C   0  0  0  0  0  0  0  0  0  0  0  0
    9.6599   -4.1551   16.4796 N   0  0  0  0  0  0  0  0  0  0  0  0
    7.0644   -6.4612   15.7375 N   0  0  0  0  0  0  0  0  0  0  0  0
    5.3549   -9.6322   18.3190 C   0  0  0  0  0  0  0  0  0  0  0  0
   10.3704   -4.9638   18.6510 C   0  0  0  0  0  0  0  0  0  0  0  0
    5.5935   -8.6419   17.4234 C   0  0  0  0  0  0  0  0  0  0  0  0
   13.0726   -4.6648   23.3394 O   0  0  0  0  0  0  0  0  0  0  0  0
    8.5955   -6.0705   17.3996 C   0  0  0  0  0  0  0  0  0  0  0  0
    4.6223   -8.3832   16.5030 C   0  0  0  0  0  0  0  0  0  0  0  0
   12.4690   -5.2624   19.9024 C   0  0  0  0  0  0  0  0  0  0  0  0
    3.2548   -9.9919   17.4189 C   0  0  0  0  0  0  0  0  0  0  0  0
   12.4767   -4.7393   22.1790 C   0  0  0  0  0  0  0  0  0  0  0  0
    7.8593   -5.3772   15.3569 N   0  0  0  0  0  0  0  0  0  0  0  0
    7.4412   -6.9038   16.9283 C   0  0  0  0  0  0  0  0  0  0  0  0
  1 21  4  0
  1 23  4  0
  2  5  1  0
  2 13  4  0
  2 16  4  0
  3  6  4  0
  3  7  4  0
  4 13  4  0
  4 19  4  0
  4 24  4  0
  6 23  4  0
  7 16  1  0
  7 21  4  0
  8 18  1  0
  9 20  4  0
  9 22  4  0
 10 17  1  0
 10 25  1  0
 11 16  4  0
 11 19  4  0
 12 15  4  0
 12 22  4  0
 14 24  4  0
 14 25  4  0
 15 17  4  0
 17 20  4  0
 18 23  1  0
 19 25  4  0
M  END
$$$$

 Created by Python create_sdf_string function

 25 28  0  0  0  0  0  0  0  0999 V2000
   13.1533   -5.2399   21.0682 C   0  0  0  0  0  0  0  0  0  0  0  0
   10.4729   -4.0295   17.6135 C   0  0  0  0  0  0  0  0  0  0  0  0
   10.4789   -4.3641   20.9564 C   0  0  0  0  0  0  0  0  0  0  0  0
    8.7421   -5.1412   16.3650 C   0  0  0  0  0  0  0  0  0  0  0  0
   11.4353   -2.9204   17.8044 C   0  0  0  0  0  0  0  0  0  0  0  0
   11.1529   -4.3028   22.1277 C   0  0  0  0  0  0  0  0  0  0  0  0
   11.1290   -4.8502   19.8052 C   0  0  0  0  0  0  0  0  0  0  0  0
   12.4329   -4.2159   24.4224 C   0  0  0  0  0  0  0  0  0  0  0  0
    3.4740   -9.0387   16.5022 C   0  0  0  0  0  0  0  0  0  0  0  0
    6.8384   -7.9290   17.5282 N   0  0  0  0  0  0  0  0  0  0  0  0
    9.4126   -5.9853   18.4899 C   0  0  0  0  0  0  0  0  0  0  0  0
    4.2064  -10.3242   18.3302 C   0  0  0  0  0  0  0  0  0  0  0  0
    9.6599   -4.1551   16.4796 N   0  0  0  0  0  0  0  0  0  0  0  0
    7.0644   -6.4612   15.7375 N   0  0  0  0  0  0  0  0  0  0  0  0
    5.3549   -9.6322   18.3190 C   0  0  0  0  0  0  0  0  0  0  0  0
   10.3704   -4.9638   18.6510 C   0  0  0  0  0  0  0  0  0  0  0  0
    5.5935   -8.6419   17.4234 C   0  0  0  0  0  0  0  0  0  0  0  0
   13.0726   -4.6648   23.3394 O   0  0  0  0  0  0  0  0  0  0  0  0
    8.5955   -6.0705   17.3996 C   0  0  0  0  0  0  0  0  0  0  0  0
    4.6223   -8.3832   16.5030 C   0  0  0  0  0  0  0  0  0  0  0  0
   12.4690   -5.2624   19.9024 C   0  0  0  0  0  0  0  0  0  0  0  0
    3.2548   -9.9919   17.4189 C   0  0  0  0  0  0  0  0  0  0  0  0
   12.4767   -4.7393   22.1790 C   0  0  0  0  0  0  0  0  0  0  0  0
    7.8593   -5.3772   15.3569 N   0  0  0  0  0  0  0  0  0  0  0  0
    7.4412   -6.9038   16.9283 C   0  0  0  0  0  0  0  0  0  0  0  0
  1 21  4  0
  1 23  4  0
  2  5  1  0
  2 13  4  0
  2 16  4  0
  3  6  4  0
  3  7  4  0
  4 13  4  0
  4 19  4  0
  4 24  4  0
  6 23  4  0
  7 16  1  0
  7 21  4  0
  8 18  1  0
  9 20  4  0
  9 22  4  0
 10 17  1  0
 10 25  1  0
 11 16  4  0
 11 19  4  0
 12 15  4  0
 12 22  4  0
 14 24  4  0
 14 25  4  0
 15 17  4  0
 17 20  4  0
 18 23  1  0
 19 25  4  0
M  END
$$$$

 Created by Python create_sdf_string function

 25 28  0  0  0  0  0  0  0  0999 V2000
   13.1533   -5.2399   21.0682 C   0  0  0  0  0  0  0  0  0  0  0  0
   10.4729   -4.0295   17.6135 C   0  0  0  0  0  0  0  0  0  0  0  0
   10.4789   -4.3641   20.9564 C   0  0  0  0  0  0  0  0  0  0  0  0
    8.7421   -5.1412   16.3650 C   0  0  0  0  0  0  0  0  0  0  0  0
   11.4353   -2.9204   17.8044 C   0  0  0  0  0  0  0  0  0  0  0  0
   11.1529   -4.3028   22.1277 C   0  0  0  0  0  0  0  0  0  0  0  0
   11.1290   -4.8502   19.8052 C   0  0  0  0  0  0  0  0  0  0  0  0
   12.4329   -4.2159   24.4224 C   0  0  0  0  0  0  0  0  0  0  0  0
    3.4740   -9.0387   16.5022 C   0  0  0  0  0  0  0  0  0  0  0  0
    6.8384   -7.9290   17.5282 N   0  0  0  0  0  0  0  0  0  0  0  0
    9.4126   -5.9853   18.4899 C   0  0  0  0  0  0  0  0  0  0  0  0
    4.2064  -10.3242   18.3302 C   0  0  0  0  0  0  0  0  0  0  0  0
    9.6599   -4.1551   16.4796 N   0  0  0  0  0  0  0  0  0  0  0  0
    7.0644   -6.4612   15.7375 N   0  0  0  0  0  0  0  0  0  0  0  0
    5.3549   -9.6322   18.3190 C   0  0  0  0  0  0  0  0  0  0  0  0
   10.3704   -4.9638   18.6510 C   0  0  0  0  0  0  0  0  0  0  0  0
    5.5935   -8.6419   17.4234 C   0  0  0  0  0  0  0  0  0  0  0  0
   13.0726   -4.6648   23.3394 O   0  0  0  0  0  0  0  0  0  0  0  0
    8.5955   -6.0705   17.3996 C   0  0  0  0  0  0  0  0  0  0  0  0
    4.6223   -8.3832   16.5030 C   0  0  0  0  0  0  0  0  0  0  0  0
   12.4690   -5.2624   19.9024 C   0  0  0  0  0  0  0  0  0  0  0  0
    3.2548   -9.9919   17.4189 C   0  0  0  0  0  0  0  0  0  0  0  0
   12.4767   -4.7393   22.1790 C   0  0  0  0  0  0  0  0  0  0  0  0
    7.8593   -5.3772   15.3569 N   0  0  0  0  0  0  0  0  0  0  0  0
    7.4412   -6.9038   16.9283 C   0  0  0  0  0  0  0  0  0  0  0  0
  1 21  4  0
  1 23  4  0
  2  5  1  0
  2 13  4  0
  2 16  4  0
  3  6  4  0
  3  7  4  0
  4 13  4  0
  4 19  4  0
  4 24  4  0
  6 23  4  0
  7 16  1  0
  7 21  4  0
  8 18  1  0
  9 20  4  0
  9 22  4  0
 10 17  1  0
 10 25  1  0
 11 16  4  0
 11 19  4  0
 12 15  4  0
 12 22  4  0
 14 24  4  0
 14 25  4  0
 15 17  4  0
 17 20  4  0
 18 23  1  0
 19 25  4  0
M  END
$$$$

 Created by Python create_sdf_string function

 25 28  0  0  0  0  0  0  0  0999 V2000
   13.1533   -5.2399   21.0682 C   0  0  0  0  0  0  0  0  0  0  0  0
   10.4729   -4.0295   17.6135 C   0  0  0  0  0  0  0  0  0  0  0  0
   10.4789   -4.3641   20.9564 C   0  0  0  0  0  0  0  0  0  0  0  0
    8.7421   -5.1412   16.3650 C   0  0  0  0  0  0  0  0  0  0  0  0
   11.4353   -2.9204   17.8044 C   0  0  0  0  0  0  0  0  0  0  0  0
   11.1529   -4.3028   22.1277 C   0  0  0  0  0  0  0  0  0  0  0  0
   11.1290   -4.8502   19.8052 C   0  0  0  0  0  0  0  0  0  0  0  0
   12.4329   -4.2159   24.4224 C   0  0  0  0  0  0  0  0  0  0  0  0
    3.4740   -9.0387   16.5022 C   0  0  0  0  0  0  0  0  0  0  0  0
    6.8384   -7.9290   17.5282 N   0  0  0  0  0  0  0  0  0  0  0  0
    9.4126   -5.9853   18.4899 C   0  0  0  0  0  0  0  0  0  0  0  0
    4.2064  -10.3242   18.3302 C   0  0  0  0  0  0  0  0  0  0  0  0
    9.6599   -4.1551   16.4796 N   0  0  0  0  0  0  0  0  0  0  0  0
    7.0644   -6.4612   15.7375 N   0  0  0  0  0  0  0  0  0  0  0  0
    5.3549   -9.6322   18.3190 C   0  0  0  0  0  0  0  0  0  0  0  0
   10.3704   -4.9638   18.6510 C   0  0  0  0  0  0  0  0  0  0  0  0
    5.5935   -8.6419   17.4234 C   0  0  0  0  0  0  0  0  0  0  0  0
   13.0726   -4.6648   23.3394 O   0  0  0  0  0  0  0  0  0  0  0  0
    8.5955   -6.0705   17.3996 C   0  0  0  0  0  0  0  0  0  0  0  0
    4.6223   -8.3832   16.5030 C   0  0  0  0  0  0  0  0  0  0  0  0
   12.4690   -5.2624   19.9024 C   0  0  0  0  0  0  0  0  0  0  0  0
    3.2548   -9.9919   17.4189 C   0  0  0  0  0  0  0  0  0  0  0  0
   12.4767   -4.7393   22.1790 C   0  0  0  0  0  0  0  0  0  0  0  0
    7.8593   -5.3772   15.3569 N   0  0  0  0  0  0  0  0  0  0  0  0
    7.4412   -6.9038   16.9283 C   0  0  0  0  0  0  0  0  0  0  0  0
  1 21  4  0
  1 23  4  0
  2  5  1  0
  2 13  4  0
  2 16  4  0
  3  6  4  0
  3  7  4  0
  4 13  4  0
  4 19  4  0
  4 24  4  0
  6 23  4  0
  7 16  1  0
  7 21  4  0
  8 18  1  0
  9 20  4  0
  9 22  4  0
 10 17  1  0
 10 25  1  0
 11 16  4  0
 11 19  4  0
 12 15  4  0
 12 22  4  0
 14 24  4  0
 14 25  4  0
 15 17  4  0
 17 20  4  0
 18 23  1  0
 19 25  4  0
M  END
$$$$

 Created by Python create_sdf_string function

 25 28  0  0  0  0  0  0  0  0999 V2000
   13.1533   -5.2399   21.0682 C   0  0  0  0  0  0  0  0  0  0  0  0
   10.4729   -4.0295   17.6135 C   0  0  0  0  0  0  0  0  0  0  0  0
   10.4789   -4.3641   20.9564 C   0  0  0  0  0  0  0  0  0  0  0  0
    8.7421   -5.1412   16.3650 C   0  0  0  0  0  0  0  0  0  0  0  0
   11.4353   -2.9204   17.8044 C   0  0  0  0  0  0  0  0  0  0  0  0
   11.1529   -4.3028   22.1277 C   0  0  0  0  0  0  0  0  0  0  0  0
   11.1290   -4.8502   19.8052 C   0  0  0  0  0  0  0  0  0  0  0  0
   12.4329   -4.2159   24.4224 C   0  0  0  0  0  0  0  0  0  0  0  0
    3.4740   -9.0387   16.5022 C   0  0  0  0  0  0  0  0  0  0  0  0
    6.8384   -7.9290   17.5282 N   0  0  0  0  0  0  0  0  0  0  0  0
    9.4126   -5.9853   18.4899 C   0  0  0  0  0  0  0  0  0  0  0  0
    4.2064  -10.3242   18.3302 C   0  0  0  0  0  0  0  0  0  0  0  0
    9.6599   -4.1551   16.4796 N   0  0  0  0  0  0  0  0  0  0  0  0
    7.0644   -6.4612   15.7375 N   0  0  0  0  0  0  0  0  0  0  0  0
    5.3549   -9.6322   18.3190 C   0  0  0  0  0  0  0  0  0  0  0  0
   10.3704   -4.9638   18.6510 C   0  0  0  0  0  0  0  0  0  0  0  0
    5.5935   -8.6419   17.4234 C   0  0  0  0  0  0  0  0  0  0  0  0
   13.0726   -4.6648   23.3394 O   0  0  0  0  0  0  0  0  0  0  0  0
    8.5955   -6.0705   17.3996 C   0  0  0  0  0  0  0  0  0  0  0  0
    4.6223   -8.3832   16.5030 C   0  0  0  0  0  0  0  0  0  0  0  0
   12.4690   -5.2624   19.9024 C   0  0  0  0  0  0  0  0  0  0  0  0
    3.2548   -9.9919   17.4189 C   0  0  0  0  0  0  0  0  0  0  0  0
   12.4767   -4.7393   22.1790 C   0  0  0  0  0  0  0  0  0  0  0  0
    7.8593   -5.3772   15.3569 N   0  0  0  0  0  0  0  0  0  0  0  0
    7.4412   -6.9038   16.9283 C   0  0  0  0  0  0  0  0  0  0  0  0
  1 21  4  0
  1 23  4  0
  2  5  1  0
  2 13  4  0
  2 16  4  0
  3  6  4  0
  3  7  4  0
  4 13  4  0
  4 19  4  0
  4 24  4  0
  6 23  4  0
  7 16  1  0
  7 21  4  0
  8 18  1  0
  9 20  4  0
  9 22  4  0
 10 17  1  0
 10 25  1  0
 11 16  4  0
 11 19  4  0
 12 15  4  0
 12 22  4  0
 14 24  4  0
 14 25  4  0
 15 17  4  0
 17 20  4  0
 18 23  1  0
 19 25  4  0
M  END
$$$$

 Created by Python create_sdf_string function

 25 28  0  0  0  0  0  0  0  0999 V2000
   13.1533   -5.2399   21.0682 C   0  0  0  0  0  0  0  0  0  0  0  0
   10.4729   -4.0295   17.6135 C   0  0  0  0  0  0  0  0  0  0  0  0
   10.4789   -4.3641   20.9564 C   0  0  0  0  0  0  0  0  0  0  0  0
    8.7421   -5.1412   16.3650 C   0  0  0  0  0  0  0  0  0  0  0  0
   11.4353   -2.9204   17.8044 C   0  0  0  0  0  0  0  0  0  0  0  0
   11.1529   -4.3028   22.1277 C   0  0  0  0  0  0  0  0  0  0  0  0
   11.1290   -4.8502   19.8052 C   0  0  0  0  0  0  0  0  0  0  0  0
   12.4329   -4.2159   24.4224 C   0  0  0  0  0  0  0  0  0  0  0  0
    3.4740   -9.0387   16.5022 C   0  0  0  0  0  0  0  0  0  0  0  0
    6.8384   -7.9290   17.5282 N   0  0  0  0  0  0  0  0  0  0  0  0
    9.4126   -5.9853   18.4899 C   0  0  0  0  0  0  0  0  0  0  0  0
    4.2064  -10.3242   18.3302 C   0  0  0  0  0  0  0  0  0  0  0  0
    9.6599   -4.1551   16.4796 N   0  0  0  0  0  0  0  0  0  0  0  0
    7.0644   -6.4612   15.7375 N   0  0  0  0  0  0  0  0  0  0  0  0
    5.3549   -9.6322   18.3190 C   0  0  0  0  0  0  0  0  0  0  0  0
   10.3704   -4.9638   18.6510 C   0  0  0  0  0  0  0  0  0  0  0  0
    5.5935   -8.6419   17.4234 C   0  0  0  0  0  0  0  0  0  0  0  0
   13.0726   -4.6648   23.3394 O   0  0  0  0  0  0  0  0  0  0  0  0
    8.5955   -6.0705   17.3996 C   0  0  0  0  0  0  0  0  0  0  0  0
    4.6223   -8.3832   16.5030 C   0  0  0  0  0  0  0  0  0  0  0  0
   12.4690   -5.2624   19.9024 C   0  0  0  0  0  0  0  0  0  0  0  0
    3.2548   -9.9919   17.4189 C   0  0  0  0  0  0  0  0  0  0  0  0
   12.4767   -4.7393   22.1790 C   0  0  0  0  0  0  0  0  0  0  0  0
    7.8593   -5.3772   15.3569 N   0  0  0  0  0  0  0  0  0  0  0  0
    7.4412   -6.9038   16.9283 C   0  0  0  0  0  0  0  0  0  0  0  0
  1 21  4  0
  1 23  4  0
  2  5  1  0
  2 13  4  0
  2 16  4  0
  3  6  4  0
  3  7  4  0
  4 13  4  0
  4 19  4  0
  4 24  4  0
  6 23  4  0
  7 16  1  0
  7 21  4  0
  8 18  1  0
  9 20  4  0
  9 22  4  0
 10 17  1  0
 10 25  1  0
 11 16  4  0
 11 19  4  0
 12 15  4  0
 12 22  4  0
 14 24  4  0
 14 25  4  0
 15 17  4  0
 17 20  4  0
 18 23  1  0
 19 25  4  0
M  END
$$$$

 Created by Python create_sdf_string function

 25 28  0  0  0  0  0  0  0  0999 V2000
   13.1533   -5.2399   21.0682 C   0  0  0  0  0  0  0  0  0  0  0  0
   10.4729   -4.0295   17.6135 C   0  0  0  0  0  0  0  0  0  0  0  0
   10.4789   -4.3641   20.9564 C   0  0  0  0  0  0  0  0  0  0  0  0
    8.7421   -5.1412   16.3650 C   0  0  0  0  0  0  0  0  0  0  0  0
   11.4353   -2.9204   17.8044 C   0  0  0  0  0  0  0  0  0  0  0  0
   11.1529   -4.3028   22.1277 C   0  0  0  0  0  0  0  0  0  0  0  0
   11.1290   -4.8502   19.8052 C   0  0  0  0  0  0  0  0  0  0  0  0
   12.4329   -4.2159   24.4224 C   0  0  0  0  0  0  0  0  0  0  0  0
    3.4740   -9.0387   16.5022 C   0  0  0  0  0  0  0  0  0  0  0  0
    6.8384   -7.9290   17.5282 N   0  0  0  0  0  0  0  0  0  0  0  0
    9.4126   -5.9853   18.4899 C   0  0  0  0  0  0  0  0  0  0  0  0
    4.2064  -10.3242   18.3302 C   0  0  0  0  0  0  0  0  0  0  0  0
    9.6599   -4.1551   16.4796 N   0  0  0  0  0  0  0  0  0  0  0  0
    7.0644   -6.4612   15.7375 N   0  0  0  0  0  0  0  0  0  0  0  0
    5.3549   -9.6322   18.3190 C   0  0  0  0  0  0  0  0  0  0  0  0
   10.3704   -4.9638   18.6510 C   0  0  0  0  0  0  0  0  0  0  0  0
    5.5935   -8.6419   17.4234 C   0  0  0  0  0  0  0  0  0  0  0  0
   13.0726   -4.6648   23.3394 O   0  0  0  0  0  0  0  0  0  0  0  0
    8.5955   -6.0705   17.3996 C   0  0  0  0  0  0  0  0  0  0  0  0
    4.6223   -8.3832   16.5030 C   0  0  0  0  0  0  0  0  0  0  0  0
   12.4690   -5.2624   19.9024 C   0  0  0  0  0  0  0  0  0  0  0  0
    3.2548   -9.9919   17.4189 C   0  0  0  0  0  0  0  0  0  0  0  0
   12.4767   -4.7393   22.1790 C   0  0  0  0  0  0  0  0  0  0  0  0
    7.8593   -5.3772   15.3569 N   0  0  0  0  0  0  0  0  0  0  0  0
    7.4412   -6.9038   16.9283 C   0  0  0  0  0  0  0  0  0  0  0  0
  1 21  4  0
  1 23  4  0
  2  5  1  0
  2 13  4  0
  2 16  4  0
  3  6  4  0
  3  7  4  0
  4 13  4  0
  4 19  4  0
  4 24  4  0
  6 23  4  0
  7 16  1  0
  7 21  4  0
  8 18  1  0
  9 20  4  0
  9 22  4  0
 10 17  1  0
 10 25  1  0
 11 16  4  0
 11 19  4  0
 12 15  4  0
 12 22  4  0
 14 24  4  0
 14 25  4  0
 15 17  4  0
 17 20  4  0
 18 23  1  0
 19 25  4  0
M  END
$$$$

 Created by Python create_sdf_string function

 25 28  0  0  0  0  0  0  0  0999 V2000
   13.1533   -5.2399   21.0682 C   0  0  0  0  0  0  0  0  0  0  0  0
   10.4729   -4.0295   17.6135 C   0  0  0  0  0  0  0  0  0  0  0  0
   10.4789   -4.3641   20.9564 C   0  0  0  0  0  0  0  0  0  0  0  0
    8.7421   -5.1412   16.3650 C   0  0  0  0  0  0  0  0  0  0  0  0
   11.4353   -2.9204   17.8044 C   0  0  0  0  0  0  0  0  0  0  0  0
   11.1529   -4.3028   22.1277 C   0  0  0  0  0  0  0  0  0  0  0  0
   11.1290   -4.8502   19.8052 C   0  0  0  0  0  0  0  0  0  0  0  0
   12.4329   -4.2159   24.4224 C   0  0  0  0  0  0  0  0  0  0  0  0
    3.4740   -9.0387   16.5022 C   0  0  0  0  0  0  0  0  0  0  0  0
    6.8384   -7.9290   17.5282 N   0  0  0  0  0  0  0  0  0  0  0  0
    9.4126   -5.9853   18.4899 C   0  0  0  0  0  0  0  0  0  0  0  0
    4.2064  -10.3242   18.3302 C   0  0  0  0  0  0  0  0  0  0  0  0
    9.6599   -4.1551   16.4796 N   0  0  0  0  0  0  0  0  0  0  0  0
    7.0644   -6.4612   15.7375 N   0  0  0  0  0  0  0  0  0  0  0  0
    5.3549   -9.6322   18.3190 C   0  0  0  0  0  0  0  0  0  0  0  0
   10.3704   -4.9638   18.6510 C   0  0  0  0  0  0  0  0  0  0  0  0
    5.5935   -8.6419   17.4234 C   0  0  0  0  0  0  0  0  0  0  0  0
   13.0726   -4.6648   23.3394 O   0  0  0  0  0  0  0  0  0  0  0  0
    8.5955   -6.0705   17.3996 C   0  0  0  0  0  0  0  0  0  0  0  0
    4.6223   -8.3832   16.5030 C   0  0  0  0  0  0  0  0  0  0  0  0
   12.4690   -5.2624   19.9024 C   0  0  0  0  0  0  0  0  0  0  0  0
    3.2548   -9.9919   17.4189 C   0  0  0  0  0  0  0  0  0  0  0  0
   12.4767   -4.7393   22.1790 C   0  0  0  0  0  0  0  0  0  0  0  0
    7.8593   -5.3772   15.3569 N   0  0  0  0  0  0  0  0  0  0  0  0
    7.4412   -6.9038   16.9283 C   0  0  0  0  0  0  0  0  0  0  0  0
  1 21  4  0
  1 23  4  0
  2  5  1  0
  2 13  4  0
  2 16  4  0
  3  6  4  0
  3  7  4  0
  4 13  4  0
  4 19  4  0
  4 24  4  0
  6 23  4  0
  7 16  1  0
  7 21  4  0
  8 18  1  0
  9 20  4  0
  9 22  4  0
 10 17  1  0
 10 25  1  0
 11 16  4  0
 11 19  4  0
 12 15  4  0
 12 22  4  0
 14 24  4  0
 14 25  4  0
 15 17  4  0
 17 20  4  0
 18 23  1  0
 19 25  4  0
M  END
$$$$

 Created by Python create_sdf_string function

 25 28  0  0  0  0  0  0  0  0999 V2000
   13.1533   -5.2399   21.0682 C   0  0  0  0  0  0  0  0  0  0  0  0
   10.4729   -4.0295   17.6135 C   0  0  0  0  0  0  0  0  0  0  0  0
   10.4789   -4.3641   20.9564 C   0  0  0  0  0  0  0  0  0  0  0  0
    8.7421   -5.1412   16.3650 C   0  0  0  0  0  0  0  0  0  0  0  0
   11.4353   -2.9204   17.8044 C   0  0  0  0  0  0  0  0  0  0  0  0
   11.1529   -4.3028   22.1277 C   0  0  0  0  0  0  0  0  0  0  0  0
   11.1290   -4.8502   19.8052 C   0  0  0  0  0  0  0  0  0  0  0  0
   12.4329   -4.2159   24.4224 C   0  0  0  0  0  0  0  0  0  0  0  0
    3.4740   -9.0387   16.5022 C   0  0  0  0  0  0  0  0  0  0  0  0
    6.8384   -7.9290   17.5282 N   0  0  0  0  0  0  0  0  0  0  0  0
    9.4126   -5.9853   18.4899 C   0  0  0  0  0  0  0  0  0  0  0  0
    4.2064  -10.3242   18.3302 C   0  0  0  0  0  0  0  0  0  0  0  0
    9.6599   -4.1551   16.4796 N   0  0  0  0  0  0  0  0  0  0  0  0
    7.0644   -6.4612   15.7375 N   0  0  0  0  0  0  0  0  0  0  0  0
    5.3549   -9.6322   18.3190 C   0  0  0  0  0  0  0  0  0  0  0  0
   10.3704   -4.9638   18.6510 C   0  0  0  0  0  0  0  0  0  0  0  0
    5.5935   -8.6419   17.4234 C   0  0  0  0  0  0  0  0  0  0  0  0
   13.0726   -4.6648   23.3394 O   0  0  0  0  0  0  0  0  0  0  0  0
    8.5955   -6.0705   17.3996 C   0  0  0  0  0  0  0  0  0  0  0  0
    4.6223   -8.3832   16.5030 C   0  0  0  0  0  0  0  0  0  0  0  0
   12.4690   -5.2624   19.9024 C   0  0  0  0  0  0  0  0  0  0  0  0
    3.2548   -9.9919   17.4189 C   0  0  0  0  0  0  0  0  0  0  0  0
   12.4767   -4.7393   22.1790 C   0  0  0  0  0  0  0  0  0  0  0  0
    7.8593   -5.3772   15.3569 N   0  0  0  0  0  0  0  0  0  0  0  0
    7.4412   -6.9038   16.9283 C   0  0  0  0  0  0  0  0  0  0  0  0
  1 21  4  0
  1 23  4  0
  2  5  1  0
  2 13  4  0
  2 16  4  0
  3  6  4  0
  3  7  4  0
  4 13  4  0
  4 19  4  0
  4 24  4  0
  6 23  4  0
  7 16  1  0
  7 21  4  0
  8 18  1  0
  9 20  4  0
  9 22  4  0
 10 17  1  0
 10 25  1  0
 11 16  4  0
 11 19  4  0
 12 15  4  0
 12 22  4  0
 14 24  4  0
 14 25  4  0
 15 17  4  0
 17 20  4  0
 18 23  1  0
 19 25  4  0
M  END
$$$$

 Created by Python create_sdf_string function

 25 28  0  0  0  0  0  0  0  0999 V2000
   13.1533   -5.2399   21.0682 C   0  0  0  0  0  0  0  0  0  0  0  0
   10.4729   -4.0295   17.6135 C   0  0  0  0  0  0  0  0  0  0  0  0
   10.4789   -4.3641   20.9564 C   0  0  0  0  0  0  0  0  0  0  0  0
    8.7421   -5.1412   16.3650 C   0  0  0  0  0  0  0  0  0  0  0  0
   11.4353   -2.9204   17.8044 C   0  0  0  0  0  0  0  0  0  0  0  0
   11.1529   -4.3028   22.1277 C   0  0  0  0  0  0  0  0  0  0  0  0
   11.1290   -4.8502   19.8052 C   0  0  0  0  0  0  0  0  0  0  0  0
   12.4329   -4.2159   24.4224 C   0  0  0  0  0  0  0  0  0  0  0  0
    3.4740   -9.0387   16.5022 C   0  0  0  0  0  0  0  0  0  0  0  0
    6.8384   -7.9290   17.5282 N   0  0  0  0  0  0  0  0  0  0  0  0
    9.4126   -5.9853   18.4899 C   0  0  0  0  0  0  0  0  0  0  0  0
    4.2064  -10.3242   18.3302 C   0  0  0  0  0  0  0  0  0  0  0  0
    9.6599   -4.1551   16.4796 N   0  0  0  0  0  0  0  0  0  0  0  0
    7.0644   -6.4612   15.7375 N   0  0  0  0  0  0  0  0  0  0  0  0
    5.3549   -9.6322   18.3190 C   0  0  0  0  0  0  0  0  0  0  0  0
   10.3704   -4.9638   18.6510 C   0  0  0  0  0  0  0  0  0  0  0  0
    5.5935   -8.6419   17.4234 C   0  0  0  0  0  0  0  0  0  0  0  0
   13.0726   -4.6648   23.3394 O   0  0  0  0  0  0  0  0  0  0  0  0
    8.5955   -6.0705   17.3996 C   0  0  0  0  0  0  0  0  0  0  0  0
    4.6223   -8.3832   16.5030 C   0  0  0  0  0  0  0  0  0  0  0  0
   12.4690   -5.2624   19.9024 C   0  0  0  0  0  0  0  0  0  0  0  0
    3.2548   -9.9919   17.4189 C   0  0  0  0  0  0  0  0  0  0  0  0
   12.4767   -4.7393   22.1790 C   0  0  0  0  0  0  0  0  0  0  0  0
    7.8593   -5.3772   15.3569 N   0  0  0  0  0  0  0  0  0  0  0  0
    7.4412   -6.9038   16.9283 C   0  0  0  0  0  0  0  0  0  0  0  0
  1 21  4  0
  1 23  4  0
  2  5  1  0
  2 13  4  0
  2 16  4  0
  3  6  4  0
  3  7  4  0
  4 13  4  0
  4 19  4  0
  4 24  4  0
  6 23  4  0
  7 16  1  0
  7 21  4  0
  8 18  1  0
  9 20  4  0
  9 22  4  0
 10 17  1  0
 10 25  1  0
 11 16  4  0
 11 19  4  0
 12 15  4  0
 12 22  4  0
 14 24  4  0
 14 25  4  0
 15 17  4  0
 17 20  4  0
 18 23  1  0
 19 25  4  0
M  END
$$$$

 Created by Python create_sdf_string function

 25 28  0  0  0  0  0  0  0  0999 V2000
   13.1533   -5.2399   21.0682 C   0  0  0  0  0  0  0  0  0  0  0  0
   10.4729   -4.0295   17.6135 C   0  0  0  0  0  0  0  0  0  0  0  0
   10.4789   -4.3641   20.9564 C   0  0  0  0  0  0  0  0  0  0  0  0
    8.7421   -5.1412   16.3650 C   0  0  0  0  0  0  0  0  0  0  0  0
   11.4353   -2.9204   17.8044 C   0  0  0  0  0  0  0  0  0  0  0  0
   11.1529   -4.3028   22.1277 C   0  0  0  0  0  0  0  0  0  0  0  0
   11.1290   -4.8502   19.8052 C   0  0  0  0  0  0  0  0  0  0  0  0
   12.4329   -4.2159   24.4224 C   0  0  0  0  0  0  0  0  0  0  0  0
    3.4740   -9.0387   16.5022 C   0  0  0  0  0  0  0  0  0  0  0  0
    6.8384   -7.9290   17.5282 N   0  0  0  0  0  0  0  0  0  0  0  0
    9.4126   -5.9853   18.4899 C   0  0  0  0  0  0  0  0  0  0  0  0
    4.2064  -10.3242   18.3302 C   0  0  0  0  0  0  0  0  0  0  0  0
    9.6599   -4.1551   16.4796 N   0  0  0  0  0  0  0  0  0  0  0  0
    7.0644   -6.4612   15.7375 N   0  0  0  0  0  0  0  0  0  0  0  0
    5.3549   -9.6322   18.3190 C   0  0  0  0  0  0  0  0  0  0  0  0
   10.3704   -4.9638   18.6510 C   0  0  0  0  0  0  0  0  0  0  0  0
    5.5935   -8.6419   17.4234 C   0  0  0  0  0  0  0  0  0  0  0  0
   13.0726   -4.6648   23.3394 O   0  0  0  0  0  0  0  0  0  0  0  0
    8.5955   -6.0705   17.3996 C   0  0  0  0  0  0  0  0  0  0  0  0
    4.6223   -8.3832   16.5030 C   0  0  0  0  0  0  0  0  0  0  0  0
   12.4690   -5.2624   19.9024 C   0  0  0  0  0  0  0  0  0  0  0  0
    3.2548   -9.9919   17.4189 C   0  0  0  0  0  0  0  0  0  0  0  0
   12.4767   -4.7393   22.1790 C   0  0  0  0  0  0  0  0  0  0  0  0
    7.8593   -5.3772   15.3569 N   0  0  0  0  0  0  0  0  0  0  0  0
    7.4412   -6.9038   16.9283 C   0  0  0  0  0  0  0  0  0  0  0  0
  1 21  4  0
  1 23  4  0
  2  5  1  0
  2 13  4  0
  2 16  4  0
  3  6  4  0
  3  7  4  0
  4 13  4  0
  4 19  4  0
  4 24  4  0
  6 23  4  0
  7 16  1  0
  7 21  4  0
  8 18  1  0
  9 20  4  0
  9 22  4  0
 10 17  1  0
 10 25  1  0
 11 16  4  0
 11 19  4  0
 12 15  4  0
 12 22  4  0
 14 24  4  0
 14 25  4  0
 15 17  4  0
 17 20  4  0
 18 23  1  0
 19 25  4  0
M  END
$$$$

 Created by Python create_sdf_string function

 25 28  0  0  0  0  0  0  0  0999 V2000
   13.1533   -5.2399   21.0682 C   0  0  0  0  0  0  0  0  0  0  0  0
   10.4729   -4.0295   17.6135 C   0  0  0  0  0  0  0  0  0  0  0  0
   10.4789   -4.3641   20.9564 C   0  0  0  0  0  0  0  0  0  0  0  0
    8.7421   -5.1412   16.3650 C   0  0  0  0  0  0  0  0  0  0  0  0
   11.4353   -2.9204   17.8044 C   0  0  0  0  0  0  0  0  0  0  0  0
   11.1529   -4.3028   22.1277 C   0  0  0  0  0  0  0  0  0  0  0  0
   11.1290   -4.8502   19.8052 C   0  0  0  0  0  0  0  0  0  0  0  0
   12.4329   -4.2159   24.4224 C   0  0  0  0  0  0  0  0  0  0  0  0
    3.4740   -9.0387   16.5022 C   0  0  0  0  0  0  0  0  0  0  0  0
    6.8384   -7.9290   17.5282 N   0  0  0  0  0  0  0  0  0  0  0  0
    9.4126   -5.9853   18.4899 C   0  0  0  0  0  0  0  0  0  0  0  0
    4.2064  -10.3242   18.3302 C   0  0  0  0  0  0  0  0  0  0  0  0
    9.6599   -4.1551   16.4796 N   0  0  0  0  0  0  0  0  0  0  0  0
    7.0644   -6.4612   15.7375 N   0  0  0  0  0  0  0  0  0  0  0  0
    5.3549   -9.6322   18.3190 C   0  0  0  0  0  0  0  0  0  0  0  0
   10.3704   -4.9638   18.6510 C   0  0  0  0  0  0  0  0  0  0  0  0
    5.5935   -8.6419   17.4234 C   0  0  0  0  0  0  0  0  0  0  0  0
   13.0726   -4.6648   23.3394 O   0  0  0  0  0  0  0  0  0  0  0  0
    8.5955   -6.0705   17.3996 C   0  0  0  0  0  0  0  0  0  0  0  0
    4.6223   -8.3832   16.5030 C   0  0  0  0  0  0  0  0  0  0  0  0
   12.4690   -5.2624   19.9024 C   0  0  0  0  0  0  0  0  0  0  0  0
    3.2548   -9.9919   17.4189 C   0  0  0  0  0  0  0  0  0  0  0  0
   12.4767   -4.7393   22.1790 C   0  0  0  0  0  0  0  0  0  0  0  0
    7.8593   -5.3772   15.3569 N   0  0  0  0  0  0  0  0  0  0  0  0
    7.4412   -6.9038   16.9283 C   0  0  0  0  0  0  0  0  0  0  0  0
  1 21  4  0
  1 23  4  0
  2  5  1  0
  2 13  4  0
  2 16  4  0
  3  6  4  0
  3  7  4  0
  4 13  4  0
  4 19  4  0
  4 24  4  0
  6 23  4  0
  7 16  1  0
  7 21  4  0
  8 18  1  0
  9 20  4  0
  9 22  4  0
 10 17  1  0
 10 25  1  0
 11 16  4  0
 11 19  4  0
 12 15  4  0
 12 22  4  0
 14 24  4  0
 14 25  4  0
 15 17  4  0
 17 20  4  0
 18 23  1  0
 19 25  4  0
M  END
$$$$

 Created by Python create_sdf_string function

 25 28  0  0  0  0  0  0  0  0999 V2000
   13.1533   -5.2399   21.0682 C   0  0  0  0  0  0  0  0  0  0  0  0
   10.4729   -4.0295   17.6135 C   0  0  0  0  0  0  0  0  0  0  0  0
   10.4789   -4.3641   20.9564 C   0  0  0  0  0  0  0  0  0  0  0  0
    8.7421   -5.1412   16.3650 C   0  0  0  0  0  0  0  0  0  0  0  0
   11.4353   -2.9204   17.8044 C   0  0  0  0  0  0  0  0  0  0  0  0
   11.1529   -4.3028   22.1277 C   0  0  0  0  0  0  0  0  0  0  0  0
   11.1290   -4.8502   19.8052 C   0  0  0  0  0  0  0  0  0  0  0  0
   12.4329   -4.2159   24.4224 C   0  0  0  0  0  0  0  0  0  0  0  0
    3.4740   -9.0387   16.5022 C   0  0  0  0  0  0  0  0  0  0  0  0
    6.8384   -7.9290   17.5282 N   0  0  0  0  0  0  0  0  0  0  0  0
    9.4126   -5.9853   18.4899 C   0  0  0  0  0  0  0  0  0  0  0  0
    4.2064  -10.3242   18.3302 C   0  0  0  0  0  0  0  0  0  0  0  0
    9.6599   -4.1551   16.4796 N   0  0  0  0  0  0  0  0  0  0  0  0
    7.0644   -6.4612   15.7375 N   0  0  0  0  0  0  0  0  0  0  0  0
    5.3549   -9.6322   18.3190 C   0  0  0  0  0  0  0  0  0  0  0  0
   10.3704   -4.9638   18.6510 C   0  0  0  0  0  0  0  0  0  0  0  0
    5.5935   -8.6419   17.4234 C   0  0  0  0  0  0  0  0  0  0  0  0
   13.0726   -4.6648   23.3394 O   0  0  0  0  0  0  0  0  0  0  0  0
    8.5955   -6.0705   17.3996 C   0  0  0  0  0  0  0  0  0  0  0  0
    4.6223   -8.3832   16.5030 C   0  0  0  0  0  0  0  0  0  0  0  0
   12.4690   -5.2624   19.9024 C   0  0  0  0  0  0  0  0  0  0  0  0
    3.2548   -9.9919   17.4189 C   0  0  0  0  0  0  0  0  0  0  0  0
   12.4767   -4.7393   22.1790 C   0  0  0  0  0  0  0  0  0  0  0  0
    7.8593   -5.3772   15.3569 N   0  0  0  0  0  0  0  0  0  0  0  0
    7.4412   -6.9038   16.9283 C   0  0  0  0  0  0  0  0  0  0  0  0
  1 21  4  0
  1 23  4  0
  2  5  1  0
  2 13  4  0
  2 16  4  0
  3  6  4  0
  3  7  4  0
  4 13  4  0
  4 19  4  0
  4 24  4  0
  6 23  4  0
  7 16  1  0
  7 21  4  0
  8 18  1  0
  9 20  4  0
  9 22  4  0
 10 17  1  0
 10 25  1  0
 11 16  4  0
 11 19  4  0
 12 15  4  0
 12 22  4  0
 14 24  4  0
 14 25  4  0
 15 17  4  0
 17 20  4  0
 18 23  1  0
 19 25  4  0
M  END
$$$$

 Created by Python create_sdf_string function

 25 28  0  0  0  0  0  0  0  0999 V2000
   13.1533   -5.2399   21.0682 C   0  0  0  0  0  0  0  0  0  0  0  0
   10.4729   -4.0295   17.6135 C   0  0  0  0  0  0  0  0  0  0  0  0
   10.4789   -4.3641   20.9564 C   0  0  0  0  0  0  0  0  0  0  0  0
    8.7421   -5.1412   16.3650 C   0  0  0  0  0  0  0  0  0  0  0  0
   11.4353   -2.9204   17.8044 C   0  0  0  0  0  0  0  0  0  0  0  0
   11.1529   -4.3028   22.1277 C   0  0  0  0  0  0  0  0  0  0  0  0
   11.1290   -4.8502   19.8052 C   0  0  0  0  0  0  0  0  0  0  0  0
   12.4329   -4.2159   24.4224 C   0  0  0  0  0  0  0  0  0  0  0  0
    3.4740   -9.0387   16.5022 C   0  0  0  0  0  0  0  0  0  0  0  0
    6.8384   -7.9290   17.5282 N   0  0  0  0  0  0  0  0  0  0  0  0
    9.4126   -5.9853   18.4899 C   0  0  0  0  0  0  0  0  0  0  0  0
    4.2064  -10.3242   18.3302 C   0  0  0  0  0  0  0  0  0  0  0  0
    9.6599   -4.1551   16.4796 N   0  0  0  0  0  0  0  0  0  0  0  0
    7.0644   -6.4612   15.7375 N   0  0  0  0  0  0  0  0  0  0  0  0
    5.3549   -9.6322   18.3190 C   0  0  0  0  0  0  0  0  0  0  0  0
   10.3704   -4.9638   18.6510 C   0  0  0  0  0  0  0  0  0  0  0  0
    5.5935   -8.6419   17.4234 C   0  0  0  0  0  0  0  0  0  0  0  0
   13.0726   -4.6648   23.3394 O   0  0  0  0  0  0  0  0  0  0  0  0
    8.5955   -6.0705   17.3996 C   0  0  0  0  0  0  0  0  0  0  0  0
    4.6223   -8.3832   16.5030 C   0  0  0  0  0  0  0  0  0  0  0  0
   12.4690   -5.2624   19.9024 C   0  0  0  0  0  0  0  0  0  0  0  0
    3.2548   -9.9919   17.4189 C   0  0  0  0  0  0  0  0  0  0  0  0
   12.4767   -4.7393   22.1790 C   0  0  0  0  0  0  0  0  0  0  0  0
    7.8593   -5.3772   15.3569 N   0  0  0  0  0  0  0  0  0  0  0  0
    7.4412   -6.9038   16.9283 C   0  0  0  0  0  0  0  0  0  0  0  0
  1 21  4  0
  1 23  4  0
  2  5  1  0
  2 13  4  0
  2 16  4  0
  3  6  4  0
  3  7  4  0
  4 13  4  0
  4 19  4  0
  4 24  4  0
  6 23  4  0
  7 16  1  0
  7 21  4  0
  8 18  1  0
  9 20  4  0
  9 22  4  0
 10 17  1  0
 10 25  1  0
 11 16  4  0
 11 19  4  0
 12 15  4  0
 12 22  4  0
 14 24  4  0
 14 25  4  0
 15 17  4  0
 17 20  4  0
 18 23  1  0
 19 25  4  0
M  END
$$$$

 Created by Python create_sdf_string function

 25 28  0  0  0  0  0  0  0  0999 V2000
   13.1533   -5.2399   21.0682 C   0  0  0  0  0  0  0  0  0  0  0  0
   10.4729   -4.0295   17.6135 C   0  0  0  0  0  0  0  0  0  0  0  0
   10.4789   -4.3641   20.9564 C   0  0  0  0  0  0  0  0  0  0  0  0
    8.7421   -5.1412   16.3650 C   0  0  0  0  0  0  0  0  0  0  0  0
   11.4353   -2.9204   17.8044 C   0  0  0  0  0  0  0  0  0  0  0  0
   11.1529   -4.3028   22.1277 C   0  0  0  0  0  0  0  0  0  0  0  0
   11.1290   -4.8502   19.8052 C   0  0  0  0  0  0  0  0  0  0  0  0
   12.4329   -4.2159   24.4224 C   0  0  0  0  0  0  0  0  0  0  0  0
    3.4740   -9.0387   16.5022 C   0  0  0  0  0  0  0  0  0  0  0  0
    6.8384   -7.9290   17.5282 N   0  0  0  0  0  0  0  0  0  0  0  0
    9.4126   -5.9853   18.4899 C   0  0  0  0  0  0  0  0  0  0  0  0
    4.2064  -10.3242   18.3302 C   0  0  0  0  0  0  0  0  0  0  0  0
    9.6599   -4.1551   16.4796 N   0  0  0  0  0  0  0  0  0  0  0  0
    7.0644   -6.4612   15.7375 N   0  0  0  0  0  0  0  0  0  0  0  0
    5.3549   -9.6322   18.3190 C   0  0  0  0  0  0  0  0  0  0  0  0
   10.3704   -4.9638   18.6510 C   0  0  0  0  0  0  0  0  0  0  0  0
    5.5935   -8.6419   17.4234 C   0  0  0  0  0  0  0  0  0  0  0  0
   13.0726   -4.6648   23.3394 O   0  0  0  0  0  0  0  0  0  0  0  0
    8.5955   -6.0705   17.3996 C   0  0  0  0  0  0  0  0  0  0  0  0
    4.6223   -8.3832   16.5030 C   0  0  0  0  0  0  0  0  0  0  0  0
   12.4690   -5.2624   19.9024 C   0  0  0  0  0  0  0  0  0  0  0  0
    3.2548   -9.9919   17.4189 C   0  0  0  0  0  0  0  0  0  0  0  0
   12.4767   -4.7393   22.1790 C   0  0  0  0  0  0  0  0  0  0  0  0
    7.8593   -5.3772   15.3569 N   0  0  0  0  0  0  0  0  0  0  0  0
    7.4412   -6.9038   16.9283 C   0  0  0  0  0  0  0  0  0  0  0  0
  1 21  4  0
  1 23  4  0
  2  5  1  0
  2 13  4  0
  2 16  4  0
  3  6  4  0
  3  7  4  0
  4 13  4  0
  4 19  4  0
  4 24  4  0
  6 23  4  0
  7 16  1  0
  7 21  4  0
  8 18  1  0
  9 20  4  0
  9 22  4  0
 10 17  1  0
 10 25  1  0
 11 16  4  0
 11 19  4  0
 12 15  4  0
 12 22  4  0
 14 24  4  0
 14 25  4  0
 15 17  4  0
 17 20  4  0
 18 23  1  0
 19 25  4  0
M  END
$$$$

 Created by Python create_sdf_string function

 25 28  0  0  0  0  0  0  0  0999 V2000
   13.1533   -5.2399   21.0682 C   0  0  0  0  0  0  0  0  0  0  0  0
   10.4729   -4.0295   17.6135 C   0  0  0  0  0  0  0  0  0  0  0  0
   10.4789   -4.3641   20.9564 C   0  0  0  0  0  0  0  0  0  0  0  0
    8.7421   -5.1412   16.3650 C   0  0  0  0  0  0  0  0  0  0  0  0
   11.4353   -2.9204   17.8044 C   0  0  0  0  0  0  0  0  0  0  0  0
   11.1529   -4.3028   22.1277 C   0  0  0  0  0  0  0  0  0  0  0  0
   11.1290   -4.8502   19.8052 C   0  0  0  0  0  0  0  0  0  0  0  0
   12.4329   -4.2159   24.4224 C   0  0  0  0  0  0  0  0  0  0  0  0
    3.4740   -9.0387   16.5022 C   0  0  0  0  0  0  0  0  0  0  0  0
    6.8384   -7.9290   17.5282 N   0  0  0  0  0  0  0  0  0  0  0  0
    9.4126   -5.9853   18.4899 C   0  0  0  0  0  0  0  0  0  0  0  0
    4.2064  -10.3242   18.3302 C   0  0  0  0  0  0  0  0  0  0  0  0
    9.6599   -4.1551   16.4796 N   0  0  0  0  0  0  0  0  0  0  0  0
    7.0644   -6.4612   15.7375 N   0  0  0  0  0  0  0  0  0  0  0  0
    5.3549   -9.6322   18.3190 C   0  0  0  0  0  0  0  0  0  0  0  0
   10.3704   -4.9638   18.6510 C   0  0  0  0  0  0  0  0  0  0  0  0
    5.5935   -8.6419   17.4234 C   0  0  0  0  0  0  0  0  0  0  0  0
   13.0726   -4.6648   23.3394 O   0  0  0  0  0  0  0  0  0  0  0  0
    8.5955   -6.0705   17.3996 C   0  0  0  0  0  0  0  0  0  0  0  0
    4.6223   -8.3832   16.5030 C   0  0  0  0  0  0  0  0  0  0  0  0
   12.4690   -5.2624   19.9024 C   0  0  0  0  0  0  0  0  0  0  0  0
    3.2548   -9.9919   17.4189 C   0  0  0  0  0  0  0  0  0  0  0  0
   12.4767   -4.7393   22.1790 C   0  0  0  0  0  0  0  0  0  0  0  0
    7.8593   -5.3772   15.3569 N   0  0  0  0  0  0  0  0  0  0  0  0
    7.4412   -6.9038   16.9283 C   0  0  0  0  0  0  0  0  0  0  0  0
  1 21  4  0
  1 23  4  0
  2  5  1  0
  2 13  4  0
  2 16  4  0
  3  6  4  0
  3  7  4  0
  4 13  4  0
  4 19  4  0
  4 24  4  0
  6 23  4  0
  7 16  1  0
  7 21  4  0
  8 18  1  0
  9 20  4  0
  9 22  4  0
 10 17  1  0
 10 25  1  0
 11 16  4  0
 11 19  4  0
 12 15  4  0
 12 22  4  0
 14 24  4  0
 14 25  4  0
 15 17  4  0
 17 20  4  0
 18 23  1  0
 19 25  4  0
M  END
$$$$

 Created by Python create_sdf_string function

 25 28  0  0  0  0  0  0  0  0999 V2000
   13.1533   -5.2399   21.0682 C   0  0  0  0  0  0  0  0  0  0  0  0
   10.4729   -4.0295   17.6135 C   0  0  0  0  0  0  0  0  0  0  0  0
   10.4789   -4.3641   20.9564 C   0  0  0  0  0  0  0  0  0  0  0  0
    8.7421   -5.1412   16.3650 C   0  0  0  0  0  0  0  0  0  0  0  0
   11.4353   -2.9204   17.8044 C   0  0  0  0  0  0  0  0  0  0  0  0
   11.1529   -4.3028   22.1277 C   0  0  0  0  0  0  0  0  0  0  0  0
   11.1290   -4.8502   19.8052 C   0  0  0  0  0  0  0  0  0  0  0  0
   12.4329   -4.2159   24.4224 C   0  0  0  0  0  0  0  0  0  0  0  0
    3.4740   -9.0387   16.5022 C   0  0  0  0  0  0  0  0  0  0  0  0
    6.8384   -7.9290   17.5282 N   0  0  0  0  0  0  0  0  0  0  0  0
    9.4126   -5.9853   18.4899 C   0  0  0  0  0  0  0  0  0  0  0  0
    4.2064  -10.3242   18.3302 C   0  0  0  0  0  0  0  0  0  0  0  0
    9.6599   -4.1551   16.4796 N   0  0  0  0  0  0  0  0  0  0  0  0
    7.0644   -6.4612   15.7375 N   0  0  0  0  0  0  0  0  0  0  0  0
    5.3549   -9.6322   18.3190 C   0  0  0  0  0  0  0  0  0  0  0  0
   10.3704   -4.9638   18.6510 C   0  0  0  0  0  0  0  0  0  0  0  0
    5.5935   -8.6419   17.4234 C   0  0  0  0  0  0  0  0  0  0  0  0
   13.0726   -4.6648   23.3394 O   0  0  0  0  0  0  0  0  0  0  0  0
    8.5955   -6.0705   17.3996 C   0  0  0  0  0  0  0  0  0  0  0  0
    4.6223   -8.3832   16.5030 C   0  0  0  0  0  0  0  0  0  0  0  0
   12.4690   -5.2624   19.9024 C   0  0  0  0  0  0  0  0  0  0  0  0
    3.2548   -9.9919   17.4189 C   0  0  0  0  0  0  0  0  0  0  0  0
   12.4767   -4.7393   22.1790 C   0  0  0  0  0  0  0  0  0  0  0  0
    7.8593   -5.3772   15.3569 N   0  0  0  0  0  0  0  0  0  0  0  0
    7.4412   -6.9038   16.9283 C   0  0  0  0  0  0  0  0  0  0  0  0
  1 21  4  0
  1 23  4  0
  2  5  1  0
  2 13  4  0
  2 16  4  0
  3  6  4  0
  3  7  4  0
  4 13  4  0
  4 19  4  0
  4 24  4  0
  6 23  4  0
  7 16  1  0
  7 21  4  0
  8 18  1  0
  9 20  4  0
  9 22  4  0
 10 17  1  0
 10 25  1  0
 11 16  4  0
 11 19  4  0
 12 15  4  0
 12 22  4  0
 14 24  4  0
 14 25  4  0
 15 17  4  0
 17 20  4  0
 18 23  1  0
 19 25  4  0
M  END
$$$$

 Created by Python create_sdf_string function

 25 28  0  0  0  0  0  0  0  0999 V2000
   13.1533   -5.2399   21.0682 C   0  0  0  0  0  0  0  0  0  0  0  0
   10.4729   -4.0295   17.6135 C   0  0  0  0  0  0  0  0  0  0  0  0
   10.4789   -4.3641   20.9564 C   0  0  0  0  0  0  0  0  0  0  0  0
    8.7421   -5.1412   16.3650 C   0  0  0  0  0  0  0  0  0  0  0  0
   11.4353   -2.9204   17.8044 C   0  0  0  0  0  0  0  0  0  0  0  0
   11.1529   -4.3028   22.1277 C   0  0  0  0  0  0  0  0  0  0  0  0
   11.1290   -4.8502   19.8052 C   0  0  0  0  0  0  0  0  0  0  0  0
   12.4329   -4.2159   24.4224 C   0  0  0  0  0  0  0  0  0  0  0  0
    3.4740   -9.0387   16.5022 C   0  0  0  0  0  0  0  0  0  0  0  0
    6.8384   -7.9290   17.5282 N   0  0  0  0  0  0  0  0  0  0  0  0
    9.4126   -5.9853   18.4899 C   0  0  0  0  0  0  0  0  0  0  0  0
    4.2064  -10.3242   18.3302 C   0  0  0  0  0  0  0  0  0  0  0  0
    9.6599   -4.1551   16.4796 N   0  0  0  0  0  0  0  0  0  0  0  0
    7.0644   -6.4612   15.7375 N   0  0  0  0  0  0  0  0  0  0  0  0
    5.3549   -9.6322   18.3190 C   0  0  0  0  0  0  0  0  0  0  0  0
   10.3704   -4.9638   18.6510 C   0  0  0  0  0  0  0  0  0  0  0  0
    5.5935   -8.6419   17.4234 C   0  0  0  0  0  0  0  0  0  0  0  0
   13.0726   -4.6648   23.3394 O   0  0  0  0  0  0  0  0  0  0  0  0
    8.5955   -6.0705   17.3996 C   0  0  0  0  0  0  0  0  0  0  0  0
    4.6223   -8.3832   16.5030 C   0  0  0  0  0  0  0  0  0  0  0  0
   12.4690   -5.2624   19.9024 C   0  0  0  0  0  0  0  0  0  0  0  0
    3.2548   -9.9919   17.4189 C   0  0  0  0  0  0  0  0  0  0  0  0
   12.4767   -4.7393   22.1790 C   0  0  0  0  0  0  0  0  0  0  0  0
    7.8593   -5.3772   15.3569 N   0  0  0  0  0  0  0  0  0  0  0  0
    7.4412   -6.9038   16.9283 C   0  0  0  0  0  0  0  0  0  0  0  0
  1 21  4  0
  1 23  4  0
  2  5  1  0
  2 13  4  0
  2 16  4  0
  3  6  4  0
  3  7  4  0
  4 13  4  0
  4 19  4  0
  4 24  4  0
  6 23  4  0
  7 16  1  0
  7 21  4  0
  8 18  1  0
  9 20  4  0
  9 22  4  0
 10 17  1  0
 10 25  1  0
 11 16  4  0
 11 19  4  0
 12 15  4  0
 12 22  4  0
 14 24  4  0
 14 25  4  0
 15 17  4  0
 17 20  4  0
 18 23  1  0
 19 25  4  0
M  END
$$$$

 Created by Python create_sdf_string function

 25 28  0  0  0  0  0  0  0  0999 V2000
   13.1533   -5.2399   21.0682 C   0  0  0  0  0  0  0  0  0  0  0  0
   10.4729   -4.0295   17.6135 C   0  0  0  0  0  0  0  0  0  0  0  0
   10.4789   -4.3641   20.9564 C   0  0  0  0  0  0  0  0  0  0  0  0
    8.7421   -5.1412   16.3650 C   0  0  0  0  0  0  0  0  0  0  0  0
   11.4353   -2.9204   17.8044 C   0  0  0  0  0  0  0  0  0  0  0  0
   11.1529   -4.3028   22.1277 C   0  0  0  0  0  0  0  0  0  0  0  0
   11.1290   -4.8502   19.8052 C   0  0  0  0  0  0  0  0  0  0  0  0
   12.4329   -4.2159   24.4224 C   0  0  0  0  0  0  0  0  0  0  0  0
    3.4740   -9.0387   16.5022 C   0  0  0  0  0  0  0  0  0  0  0  0
    6.8384   -7.9290   17.5282 N   0  0  0  0  0  0  0  0  0  0  0  0
    9.4126   -5.9853   18.4899 C   0  0  0  0  0  0  0  0  0  0  0  0
    4.2064  -10.3242   18.3302 C   0  0  0  0  0  0  0  0  0  0  0  0
    9.6599   -4.1551   16.4796 N   0  0  0  0  0  0  0  0  0  0  0  0
    7.0644   -6.4612   15.7375 N   0  0  0  0  0  0  0  0  0  0  0  0
    5.3549   -9.6322   18.3190 C   0  0  0  0  0  0  0  0  0  0  0  0
   10.3704   -4.9638   18.6510 C   0  0  0  0  0  0  0  0  0  0  0  0
    5.5935   -8.6419   17.4234 C   0  0  0  0  0  0  0  0  0  0  0  0
   13.0726   -4.6648   23.3394 O   0  0  0  0  0  0  0  0  0  0  0  0
    8.5955   -6.0705   17.3996 C   0  0  0  0  0  0  0  0  0  0  0  0
    4.6223   -8.3832   16.5030 C   0  0  0  0  0  0  0  0  0  0  0  0
   12.4690   -5.2624   19.9024 C   0  0  0  0  0  0  0  0  0  0  0  0
    3.2548   -9.9919   17.4189 C   0  0  0  0  0  0  0  0  0  0  0  0
   12.4767   -4.7393   22.1790 C   0  0  0  0  0  0  0  0  0  0  0  0
    7.8593   -5.3772   15.3569 N   0  0  0  0  0  0  0  0  0  0  0  0
    7.4412   -6.9038   16.9283 C   0  0  0  0  0  0  0  0  0  0  0  0
  1 21  4  0
  1 23  4  0
  2  5  1  0
  2 13  4  0
  2 16  4  0
  3  6  4  0
  3  7  4  0
  4 13  4  0
  4 19  4  0
  4 24  4  0
  6 23  4  0
  7 16  1  0
  7 21  4  0
  8 18  1  0
  9 20  4  0
  9 22  4  0
 10 17  1  0
 10 25  1  0
 11 16  4  0
 11 19  4  0
 12 15  4  0
 12 22  4  0
 14 24  4  0
 14 25  4  0
 15 17  4  0
 17 20  4  0
 18 23  1  0
 19 25  4  0
M  END
$$$$

 Created by Python create_sdf_string function

 25 28  0  0  0  0  0  0  0  0999 V2000
   13.1533   -5.2399   21.0682 C   0  0  0  0  0  0  0  0  0  0  0  0
   10.4729   -4.0295   17.6135 C   0  0  0  0  0  0  0  0  0  0  0  0
   10.4789   -4.3641   20.9564 C   0  0  0  0  0  0  0  0  0  0  0  0
    8.7421   -5.1412   16.3650 C   0  0  0  0  0  0  0  0  0  0  0  0
   11.4353   -2.9204   17.8044 C   0  0  0  0  0  0  0  0  0  0  0  0
   11.1529   -4.3028   22.1277 C   0  0  0  0  0  0  0  0  0  0  0  0
   11.1290   -4.8502   19.8052 C   0  0  0  0  0  0  0  0  0  0  0  0
   12.4329   -4.2159   24.4224 C   0  0  0  0  0  0  0  0  0  0  0  0
    3.4740   -9.0387   16.5022 C   0  0  0  0  0  0  0  0  0  0  0  0
    6.8384   -7.9290   17.5282 N   0  0  0  0  0  0  0  0  0  0  0  0
    9.4126   -5.9853   18.4899 C   0  0  0  0  0  0  0  0  0  0  0  0
    4.2064  -10.3242   18.3302 C   0  0  0  0  0  0  0  0  0  0  0  0
    9.6599   -4.1551   16.4796 N   0  0  0  0  0  0  0  0  0  0  0  0
    7.0644   -6.4612   15.7375 N   0  0  0  0  0  0  0  0  0  0  0  0
    5.3549   -9.6322   18.3190 C   0  0  0  0  0  0  0  0  0  0  0  0
   10.3704   -4.9638   18.6510 C   0  0  0  0  0  0  0  0  0  0  0  0
    5.5935   -8.6419   17.4234 C   0  0  0  0  0  0  0  0  0  0  0  0
   13.0726   -4.6648   23.3394 O   0  0  0  0  0  0  0  0  0  0  0  0
    8.5955   -6.0705   17.3996 C   0  0  0  0  0  0  0  0  0  0  0  0
    4.6223   -8.3832   16.5030 C   0  0  0  0  0  0  0  0  0  0  0  0
   12.4690   -5.2624   19.9024 C   0  0  0  0  0  0  0  0  0  0  0  0
    3.2548   -9.9919   17.4189 C   0  0  0  0  0  0  0  0  0  0  0  0
   12.4767   -4.7393   22.1790 C   0  0  0  0  0  0  0  0  0  0  0  0
    7.8593   -5.3772   15.3569 N   0  0  0  0  0  0  0  0  0  0  0  0
    7.4412   -6.9038   16.9283 C   0  0  0  0  0  0  0  0  0  0  0  0
  1 21  4  0
  1 23  4  0
  2  5  1  0
  2 13  4  0
  2 16  4  0
  3  6  4  0
  3  7  4  0
  4 13  4  0
  4 19  4  0
  4 24  4  0
  6 23  4  0
  7 16  1  0
  7 21  4  0
  8 18  1  0
  9 20  4  0
  9 22  4  0
 10 17  1  0
 10 25  1  0
 11 16  4  0
 11 19  4  0
 12 15  4  0
 12 22  4  0
 14 24  4  0
 14 25  4  0
 15 17  4  0
 17 20  4  0
 18 23  1  0
 19 25  4  0
M  END
$$$$

 Created by Python create_sdf_string function

 25 28  0  0  0  0  0  0  0  0999 V2000
   13.1533   -5.2399   21.0682 C   0  0  0  0  0  0  0  0  0  0  0  0
   10.4729   -4.0295   17.6135 C   0  0  0  0  0  0  0  0  0  0  0  0
   10.4789   -4.3641   20.9564 C   0  0  0  0  0  0  0  0  0  0  0  0
    8.7421   -5.1412   16.3650 C   0  0  0  0  0  0  0  0  0  0  0  0
   11.4353   -2.9204   17.8044 C   0  0  0  0  0  0  0  0  0  0  0  0
   11.1529   -4.3028   22.1277 C   0  0  0  0  0  0  0  0  0  0  0  0
   11.1290   -4.8502   19.8052 C   0  0  0  0  0  0  0  0  0  0  0  0
   12.4329   -4.2159   24.4224 C   0  0  0  0  0  0  0  0  0  0  0  0
    3.4740   -9.0387   16.5022 C   0  0  0  0  0  0  0  0  0  0  0  0
    6.8384   -7.9290   17.5282 N   0  0  0  0  0  0  0  0  0  0  0  0
    9.4126   -5.9853   18.4899 C   0  0  0  0  0  0  0  0  0  0  0  0
    4.2064  -10.3242   18.3302 C   0  0  0  0  0  0  0  0  0  0  0  0
    9.6599   -4.1551   16.4796 N   0  0  0  0  0  0  0  0  0  0  0  0
    7.0644   -6.4612   15.7375 N   0  0  0  0  0  0  0  0  0  0  0  0
    5.3549   -9.6322   18.3190 C   0  0  0  0  0  0  0  0  0  0  0  0
   10.3704   -4.9638   18.6510 C   0  0  0  0  0  0  0  0  0  0  0  0
    5.5935   -8.6419   17.4234 C   0  0  0  0  0  0  0  0  0  0  0  0
   13.0726   -4.6648   23.3394 O   0  0  0  0  0  0  0  0  0  0  0  0
    8.5955   -6.0705   17.3996 C   0  0  0  0  0  0  0  0  0  0  0  0
    4.6223   -8.3832   16.5030 C   0  0  0  0  0  0  0  0  0  0  0  0
   12.4690   -5.2624   19.9024 C   0  0  0  0  0  0  0  0  0  0  0  0
    3.2548   -9.9919   17.4189 C   0  0  0  0  0  0  0  0  0  0  0  0
   12.4767   -4.7393   22.1790 C   0  0  0  0  0  0  0  0  0  0  0  0
    7.8593   -5.3772   15.3569 N   0  0  0  0  0  0  0  0  0  0  0  0
    7.4412   -6.9038   16.9283 C   0  0  0  0  0  0  0  0  0  0  0  0
  1 21  4  0
  1 23  4  0
  2  5  1  0
  2 13  4  0
  2 16  4  0
  3  6  4  0
  3  7  4  0
  4 13  4  0
  4 19  4  0
  4 24  4  0
  6 23  4  0
  7 16  1  0
  7 21  4  0
  8 18  1  0
  9 20  4  0
  9 22  4  0
 10 17  1  0
 10 25  1  0
 11 16  4  0
 11 19  4  0
 12 15  4  0
 12 22  4  0
 14 24  4  0
 14 25  4  0
 15 17  4  0
 17 20  4  0
 18 23  1  0
 19 25  4  0
M  END
$$$$

 Created by Python create_sdf_string function

 25 28  0  0  0  0  0  0  0  0999 V2000
   13.1533   -5.2399   21.0682 C   0  0  0  0  0  0  0  0  0  0  0  0
   10.4729   -4.0295   17.6135 C   0  0  0  0  0  0  0  0  0  0  0  0
   10.4789   -4.3641   20.9564 C   0  0  0  0  0  0  0  0  0  0  0  0
    8.7421   -5.1412   16.3650 C   0  0  0  0  0  0  0  0  0  0  0  0
   11.4353   -2.9204   17.8044 C   0  0  0  0  0  0  0  0  0  0  0  0
   11.1529   -4.3028   22.1277 C   0  0  0  0  0  0  0  0  0  0  0  0
   11.1290   -4.8502   19.8052 C   0  0  0  0  0  0  0  0  0  0  0  0
   12.4329   -4.2159   24.4224 C   0  0  0  0  0  0  0  0  0  0  0  0
    3.4740   -9.0387   16.5022 C   0  0  0  0  0  0  0  0  0  0  0  0
    6.8384   -7.9290   17.5282 N   0  0  0  0  0  0  0  0  0  0  0  0
    9.4126   -5.9853   18.4899 C   0  0  0  0  0  0  0  0  0  0  0  0
    4.2064  -10.3242   18.3302 C   0  0  0  0  0  0  0  0  0  0  0  0
    9.6599   -4.1551   16.4796 N   0  0  0  0  0  0  0  0  0  0  0  0
    7.0644   -6.4612   15.7375 N   0  0  0  0  0  0  0  0  0  0  0  0
    5.3549   -9.6322   18.3190 C   0  0  0  0  0  0  0  0  0  0  0  0
   10.3704   -4.9638   18.6510 C   0  0  0  0  0  0  0  0  0  0  0  0
    5.5935   -8.6419   17.4234 C   0  0  0  0  0  0  0  0  0  0  0  0
   13.0726   -4.6648   23.3394 O   0  0  0  0  0  0  0  0  0  0  0  0
    8.5955   -6.0705   17.3996 C   0  0  0  0  0  0  0  0  0  0  0  0
    4.6223   -8.3832   16.5030 C   0  0  0  0  0  0  0  0  0  0  0  0
   12.4690   -5.2624   19.9024 C   0  0  0  0  0  0  0  0  0  0  0  0
    3.2548   -9.9919   17.4189 C   0  0  0  0  0  0  0  0  0  0  0  0
   12.4767   -4.7393   22.1790 C   0  0  0  0  0  0  0  0  0  0  0  0
    7.8593   -5.3772   15.3569 N   0  0  0  0  0  0  0  0  0  0  0  0
    7.4412   -6.9038   16.9283 C   0  0  0  0  0  0  0  0  0  0  0  0
  1 21  4  0
  1 23  4  0
  2  5  1  0
  2 13  4  0
  2 16  4  0
  3  6  4  0
  3  7  4  0
  4 13  4  0
  4 19  4  0
  4 24  4  0
  6 23  4  0
  7 16  1  0
  7 21  4  0
  8 18  1  0
  9 20  4  0
  9 22  4  0
 10 17  1  0
 10 25  1  0
 11 16  4  0
 11 19  4  0
 12 15  4  0
 12 22  4  0
 14 24  4  0
 14 25  4  0
 15 17  4  0
 17 20  4  0
 18 23  1  0
 19 25  4  0
M  END
$$$$

 Created by Python create_sdf_string function

 25 28  0  0  0  0  0  0  0  0999 V2000
   13.1533   -5.2399   21.0682 C   0  0  0  0  0  0  0  0  0  0  0  0
   10.4729   -4.0295   17.6135 C   0  0  0  0  0  0  0  0  0  0  0  0
   10.4789   -4.3641   20.9564 C   0  0  0  0  0  0  0  0  0  0  0  0
    8.7421   -5.1412   16.3650 C   0  0  0  0  0  0  0  0  0  0  0  0
   11.4353   -2.9204   17.8044 C   0  0  0  0  0  0  0  0  0  0  0  0
   11.1529   -4.3028   22.1277 C   0  0  0  0  0  0  0  0  0  0  0  0
   11.1290   -4.8502   19.8052 C   0  0  0  0  0  0  0  0  0  0  0  0
   12.4329   -4.2159   24.4224 C   0  0  0  0  0  0  0  0  0  0  0  0
    3.4740   -9.0387   16.5022 C   0  0  0  0  0  0  0  0  0  0  0  0
    6.8384   -7.9290   17.5282 N   0  0  0  0  0  0  0  0  0  0  0  0
    9.4126   -5.9853   18.4899 C   0  0  0  0  0  0  0  0  0  0  0  0
    4.2064  -10.3242   18.3302 C   0  0  0  0  0  0  0  0  0  0  0  0
    9.6599   -4.1551   16.4796 N   0  0  0  0  0  0  0  0  0  0  0  0
    7.0644   -6.4612   15.7375 N   0  0  0  0  0  0  0  0  0  0  0  0
    5.3549   -9.6322   18.3190 C   0  0  0  0  0  0  0  0  0  0  0  0
   10.3704   -4.9638   18.6510 C   0  0  0  0  0  0  0  0  0  0  0  0
    5.5935   -8.6419   17.4234 C   0  0  0  0  0  0  0  0  0  0  0  0
   13.0726   -4.6648   23.3394 O   0  0  0  0  0  0  0  0  0  0  0  0
    8.5955   -6.0705   17.3996 C   0  0  0  0  0  0  0  0  0  0  0  0
    4.6223   -8.3832   16.5030 C   0  0  0  0  0  0  0  0  0  0  0  0
   12.4690   -5.2624   19.9024 C   0  0  0  0  0  0  0  0  0  0  0  0
    3.2548   -9.9919   17.4189 C   0  0  0  0  0  0  0  0  0  0  0  0
   12.4767   -4.7393   22.1790 C   0  0  0  0  0  0  0  0  0  0  0  0
    7.8593   -5.3772   15.3569 N   0  0  0  0  0  0  0  0  0  0  0  0
    7.4412   -6.9038   16.9283 C   0  0  0  0  0  0  0  0  0  0  0  0
  1 21  4  0
  1 23  4  0
  2  5  1  0
  2 13  4  0
  2 16  4  0
  3  6  4  0
  3  7  4  0
  4 13  4  0
  4 19  4  0
  4 24  4  0
  6 23  4  0
  7 16  1  0
  7 21  4  0
  8 18  1  0
  9 20  4  0
  9 22  4  0
 10 17  1  0
 10 25  1  0
 11 16  4  0
 11 19  4  0
 12 15  4  0
 12 22  4  0
 14 24  4  0
 14 25  4  0
 15 17  4  0
 17 20  4  0
 18 23  1  0
 19 25  4  0
M  END
$$$$

 Created by Python create_sdf_string function

 25 28  0  0  0  0  0  0  0  0999 V2000
   13.1533   -5.2399   21.0682 C   0  0  0  0  0  0  0  0  0  0  0  0
   10.4729   -4.0295   17.6135 C   0  0  0  0  0  0  0  0  0  0  0  0
   10.4789   -4.3641   20.9564 C   0  0  0  0  0  0  0  0  0  0  0  0
    8.7421   -5.1412   16.3650 C   0  0  0  0  0  0  0  0  0  0  0  0
   11.4353   -2.9204   17.8044 C   0  0  0  0  0  0  0  0  0  0  0  0
   11.1529   -4.3028   22.1277 C   0  0  0  0  0  0  0  0  0  0  0  0
   11.1290   -4.8502   19.8052 C   0  0  0  0  0  0  0  0  0  0  0  0
   12.4329   -4.2159   24.4224 C   0  0  0  0  0  0  0  0  0  0  0  0
    3.4740   -9.0387   16.5022 C   0  0  0  0  0  0  0  0  0  0  0  0
    6.8384   -7.9290   17.5282 N   0  0  0  0  0  0  0  0  0  0  0  0
    9.4126   -5.9853   18.4899 C   0  0  0  0  0  0  0  0  0  0  0  0
    4.2064  -10.3242   18.3302 C   0  0  0  0  0  0  0  0  0  0  0  0
    9.6599   -4.1551   16.4796 N   0  0  0  0  0  0  0  0  0  0  0  0
    7.0644   -6.4612   15.7375 N   0  0  0  0  0  0  0  0  0  0  0  0
    5.3549   -9.6322   18.3190 C   0  0  0  0  0  0  0  0  0  0  0  0
   10.3704   -4.9638   18.6510 C   0  0  0  0  0  0  0  0  0  0  0  0
    5.5935   -8.6419   17.4234 C   0  0  0  0  0  0  0  0  0  0  0  0
   13.0726   -4.6648   23.3394 O   0  0  0  0  0  0  0  0  0  0  0  0
    8.5955   -6.0705   17.3996 C   0  0  0  0  0  0  0  0  0  0  0  0
    4.6223   -8.3832   16.5030 C   0  0  0  0  0  0  0  0  0  0  0  0
   12.4690   -5.2624   19.9024 C   0  0  0  0  0  0  0  0  0  0  0  0
    3.2548   -9.9919   17.4189 C   0  0  0  0  0  0  0  0  0  0  0  0
   12.4767   -4.7393   22.1790 C   0  0  0  0  0  0  0  0  0  0  0  0
    7.8593   -5.3772   15.3569 N   0  0  0  0  0  0  0  0  0  0  0  0
    7.4412   -6.9038   16.9283 C   0  0  0  0  0  0  0  0  0  0  0  0
  1 21  4  0
  1 23  4  0
  2  5  1  0
  2 13  4  0
  2 16  4  0
  3  6  4  0
  3  7  4  0
  4 13  4  0
  4 19  4  0
  4 24  4  0
  6 23  4  0
  7 16  1  0
  7 21  4  0
  8 18  1  0
  9 20  4  0
  9 22  4  0
 10 17  1  0
 10 25  1  0
 11 16  4  0
 11 19  4  0
 12 15  4  0
 12 22  4  0
 14 24  4  0
 14 25  4  0
 15 17  4  0
 17 20  4  0
 18 23  1  0
 19 25  4  0
M  END
$$$$

 Created by Python create_sdf_string function

 25 28  0  0  0  0  0  0  0  0999 V2000
   13.1533   -5.2399   21.0682 C   0  0  0  0  0  0  0  0  0  0  0  0
   10.4729   -4.0295   17.6135 C   0  0  0  0  0  0  0  0  0  0  0  0
   10.4789   -4.3641   20.9564 C   0  0  0  0  0  0  0  0  0  0  0  0
    8.7421   -5.1412   16.3650 C   0  0  0  0  0  0  0  0  0  0  0  0
   11.4353   -2.9204   17.8044 C   0  0  0  0  0  0  0  0  0  0  0  0
   11.1529   -4.3028   22.1277 C   0  0  0  0  0  0  0  0  0  0  0  0
   11.1290   -4.8502   19.8052 C   0  0  0  0  0  0  0  0  0  0  0  0
   12.4329   -4.2159   24.4224 C   0  0  0  0  0  0  0  0  0  0  0  0
    3.4740   -9.0387   16.5022 C   0  0  0  0  0  0  0  0  0  0  0  0
    6.8384   -7.9290   17.5282 N   0  0  0  0  0  0  0  0  0  0  0  0
    9.4126   -5.9853   18.4899 C   0  0  0  0  0  0  0  0  0  0  0  0
    4.2064  -10.3242   18.3302 C   0  0  0  0  0  0  0  0  0  0  0  0
    9.6599   -4.1551   16.4796 N   0  0  0  0  0  0  0  0  0  0  0  0
    7.0644   -6.4612   15.7375 N   0  0  0  0  0  0  0  0  0  0  0  0
    5.3549   -9.6322   18.3190 C   0  0  0  0  0  0  0  0  0  0  0  0
   10.3704   -4.9638   18.6510 C   0  0  0  0  0  0  0  0  0  0  0  0
    5.5935   -8.6419   17.4234 C   0  0  0  0  0  0  0  0  0  0  0  0
   13.0726   -4.6648   23.3394 O   0  0  0  0  0  0  0  0  0  0  0  0
    8.5955   -6.0705   17.3996 C   0  0  0  0  0  0  0  0  0  0  0  0
    4.6223   -8.3832   16.5030 C   0  0  0  0  0  0  0  0  0  0  0  0
   12.4690   -5.2624   19.9024 C   0  0  0  0  0  0  0  0  0  0  0  0
    3.2548   -9.9919   17.4189 C   0  0  0  0  0  0  0  0  0  0  0  0
   12.4767   -4.7393   22.1790 C   0  0  0  0  0  0  0  0  0  0  0  0
    7.8593   -5.3772   15.3569 N   0  0  0  0  0  0  0  0  0  0  0  0
    7.4412   -6.9038   16.9283 C   0  0  0  0  0  0  0  0  0  0  0  0
  1 21  4  0
  1 23  4  0
  2  5  1  0
  2 13  4  0
  2 16  4  0
  3  6  4  0
  3  7  4  0
  4 13  4  0
  4 19  4  0
  4 24  4  0
  6 23  4  0
  7 16  1  0
  7 21  4  0
  8 18  1  0
  9 20  4  0
  9 22  4  0
 10 17  1  0
 10 25  1  0
 11 16  4  0
 11 19  4  0
 12 15  4  0
 12 22  4  0
 14 24  4  0
 14 25  4  0
 15 17  4  0
 17 20  4  0
 18 23  1  0
 19 25  4  0
M  END
$$$$

 Created by Python create_sdf_string function

 25 28  0  0  0  0  0  0  0  0999 V2000
   13.1533   -5.2399   21.0682 C   0  0  0  0  0  0  0  0  0  0  0  0
   10.4729   -4.0295   17.6135 C   0  0  0  0  0  0  0  0  0  0  0  0
   10.4789   -4.3641   20.9564 C   0  0  0  0  0  0  0  0  0  0  0  0
    8.7421   -5.1412   16.3650 C   0  0  0  0  0  0  0  0  0  0  0  0
   11.4353   -2.9204   17.8044 C   0  0  0  0  0  0  0  0  0  0  0  0
   11.1529   -4.3028   22.1277 C   0  0  0  0  0  0  0  0  0  0  0  0
   11.1290   -4.8502   19.8052 C   0  0  0  0  0  0  0  0  0  0  0  0
   12.4329   -4.2159   24.4224 C   0  0  0  0  0  0  0  0  0  0  0  0
    3.4740   -9.0387   16.5022 C   0  0  0  0  0  0  0  0  0  0  0  0
    6.8384   -7.9290   17.5282 N   0  0  0  0  0  0  0  0  0  0  0  0
    9.4126   -5.9853   18.4899 C   0  0  0  0  0  0  0  0  0  0  0  0
    4.2064  -10.3242   18.3302 C   0  0  0  0  0  0  0  0  0  0  0  0
    9.6599   -4.1551   16.4796 N   0  0  0  0  0  0  0  0  0  0  0  0
    7.0644   -6.4612   15.7375 N   0  0  0  0  0  0  0  0  0  0  0  0
    5.3549   -9.6322   18.3190 C   0  0  0  0  0  0  0  0  0  0  0  0
   10.3704   -4.9638   18.6510 C   0  0  0  0  0  0  0  0  0  0  0  0
    5.5935   -8.6419   17.4234 C   0  0  0  0  0  0  0  0  0  0  0  0
   13.0726   -4.6648   23.3394 O   0  0  0  0  0  0  0  0  0  0  0  0
    8.5955   -6.0705   17.3996 C   0  0  0  0  0  0  0  0  0  0  0  0
    4.6223   -8.3832   16.5030 C   0  0  0  0  0  0  0  0  0  0  0  0
   12.4690   -5.2624   19.9024 C   0  0  0  0  0  0  0  0  0  0  0  0
    3.2548   -9.9919   17.4189 C   0  0  0  0  0  0  0  0  0  0  0  0
   12.4767   -4.7393   22.1790 C   0  0  0  0  0  0  0  0  0  0  0  0
    7.8593   -5.3772   15.3569 N   0  0  0  0  0  0  0  0  0  0  0  0
    7.4412   -6.9038   16.9283 C   0  0  0  0  0  0  0  0  0  0  0  0
  1 21  4  0
  1 23  4  0
  2  5  1  0
  2 13  4  0
  2 16  4  0
  3  6  4  0
  3  7  4  0
  4 13  4  0
  4 19  4  0
  4 24  4  0
  6 23  4  0
  7 16  1  0
  7 21  4  0
  8 18  1  0
  9 20  4  0
  9 22  4  0
 10 17  1  0
 10 25  1  0
 11 16  4  0
 11 19  4  0
 12 15  4  0
 12 22  4  0
 14 24  4  0
 14 25  4  0
 15 17  4  0
 17 20  4  0
 18 23  1  0
 19 25  4  0
M  END
$$$$

 Created by Python create_sdf_string function

 25 28  0  0  0  0  0  0  0  0999 V2000
   13.1533   -5.2399   21.0682 C   0  0  0  0  0  0  0  0  0  0  0  0
   10.4729   -4.0295   17.6135 C   0  0  0  0  0  0  0  0  0  0  0  0
   10.4789   -4.3641   20.9564 C   0  0  0  0  0  0  0  0  0  0  0  0
    8.7421   -5.1412   16.3650 C   0  0  0  0  0  0  0  0  0  0  0  0
   11.4353   -2.9204   17.8044 C   0  0  0  0  0  0  0  0  0  0  0  0
   11.1529   -4.3028   22.1277 C   0  0  0  0  0  0  0  0  0  0  0  0
   11.1290   -4.8502   19.8052 C   0  0  0  0  0  0  0  0  0  0  0  0
   12.4329   -4.2159   24.4224 C   0  0  0  0  0  0  0  0  0  0  0  0
    3.4740   -9.0387   16.5022 C   0  0  0  0  0  0  0  0  0  0  0  0
    6.8384   -7.9290   17.5282 N   0  0  0  0  0  0  0  0  0  0  0  0
    9.4126   -5.9853   18.4899 C   0  0  0  0  0  0  0  0  0  0  0  0
    4.2064  -10.3242   18.3302 C   0  0  0  0  0  0  0  0  0  0  0  0
    9.6599   -4.1551   16.4796 N   0  0  0  0  0  0  0  0  0  0  0  0
    7.0644   -6.4612   15.7375 N   0  0  0  0  0  0  0  0  0  0  0  0
    5.3549   -9.6322   18.3190 C   0  0  0  0  0  0  0  0  0  0  0  0
   10.3704   -4.9638   18.6510 C   0  0  0  0  0  0  0  0  0  0  0  0
    5.5935   -8.6419   17.4234 C   0  0  0  0  0  0  0  0  0  0  0  0
   13.0726   -4.6648   23.3394 O   0  0  0  0  0  0  0  0  0  0  0  0
    8.5955   -6.0705   17.3996 C   0  0  0  0  0  0  0  0  0  0  0  0
    4.6223   -8.3832   16.5030 C   0  0  0  0  0  0  0  0  0  0  0  0
   12.4690   -5.2624   19.9024 C   0  0  0  0  0  0  0  0  0  0  0  0
    3.2548   -9.9919   17.4189 C   0  0  0  0  0  0  0  0  0  0  0  0
   12.4767   -4.7393   22.1790 C   0  0  0  0  0  0  0  0  0  0  0  0
    7.8593   -5.3772   15.3569 N   0  0  0  0  0  0  0  0  0  0  0  0
    7.4412   -6.9038   16.9283 C   0  0  0  0  0  0  0  0  0  0  0  0
  1 21  4  0
  1 23  4  0
  2  5  1  0
  2 13  4  0
  2 16  4  0
  3  6  4  0
  3  7  4  0
  4 13  4  0
  4 19  4  0
  4 24  4  0
  6 23  4  0
  7 16  1  0
  7 21  4  0
  8 18  1  0
  9 20  4  0
  9 22  4  0
 10 17  1  0
 10 25  1  0
 11 16  4  0
 11 19  4  0
 12 15  4  0
 12 22  4  0
 14 24  4  0
 14 25  4  0
 15 17  4  0
 17 20  4  0
 18 23  1  0
 19 25  4  0
M  END
$$$$

 Created by Python create_sdf_string function

 25 28  0  0  0  0  0  0  0  0999 V2000
   13.1533   -5.2399   21.0682 C   0  0  0  0  0  0  0  0  0  0  0  0
   10.4729   -4.0295   17.6135 C   0  0  0  0  0  0  0  0  0  0  0  0
   10.4789   -4.3641   20.9564 C   0  0  0  0  0  0  0  0  0  0  0  0
    8.7421   -5.1412   16.3650 C   0  0  0  0  0  0  0  0  0  0  0  0
   11.4353   -2.9204   17.8044 C   0  0  0  0  0  0  0  0  0  0  0  0
   11.1529   -4.3028   22.1277 C   0  0  0  0  0  0  0  0  0  0  0  0
   11.1290   -4.8502   19.8052 C   0  0  0  0  0  0  0  0  0  0  0  0
   12.4329   -4.2159   24.4224 C   0  0  0  0  0  0  0  0  0  0  0  0
    3.4740   -9.0387   16.5022 C   0  0  0  0  0  0  0  0  0  0  0  0
    6.8384   -7.9290   17.5282 N   0  0  0  0  0  0  0  0  0  0  0  0
    9.4126   -5.9853   18.4899 C   0  0  0  0  0  0  0  0  0  0  0  0
    4.2064  -10.3242   18.3302 C   0  0  0  0  0  0  0  0  0  0  0  0
    9.6599   -4.1551   16.4796 N   0  0  0  0  0  0  0  0  0  0  0  0
    7.0644   -6.4612   15.7375 N   0  0  0  0  0  0  0  0  0  0  0  0
    5.3549   -9.6322   18.3190 C   0  0  0  0  0  0  0  0  0  0  0  0
   10.3704   -4.9638   18.6510 C   0  0  0  0  0  0  0  0  0  0  0  0
    5.5935   -8.6419   17.4234 C   0  0  0  0  0  0  0  0  0  0  0  0
   13.0726   -4.6648   23.3394 O   0  0  0  0  0  0  0  0  0  0  0  0
    8.5955   -6.0705   17.3996 C   0  0  0  0  0  0  0  0  0  0  0  0
    4.6223   -8.3832   16.5030 C   0  0  0  0  0  0  0  0  0  0  0  0
   12.4690   -5.2624   19.9024 C   0  0  0  0  0  0  0  0  0  0  0  0
    3.2548   -9.9919   17.4189 C   0  0  0  0  0  0  0  0  0  0  0  0
   12.4767   -4.7393   22.1790 C   0  0  0  0  0  0  0  0  0  0  0  0
    7.8593   -5.3772   15.3569 N   0  0  0  0  0  0  0  0  0  0  0  0
    7.4412   -6.9038   16.9283 C   0  0  0  0  0  0  0  0  0  0  0  0
  1 21  4  0
  1 23  4  0
  2  5  1  0
  2 13  4  0
  2 16  4  0
  3  6  4  0
  3  7  4  0
  4 13  4  0
  4 19  4  0
  4 24  4  0
  6 23  4  0
  7 16  1  0
  7 21  4  0
  8 18  1  0
  9 20  4  0
  9 22  4  0
 10 17  1  0
 10 25  1  0
 11 16  4  0
 11 19  4  0
 12 15  4  0
 12 22  4  0
 14 24  4  0
 14 25  4  0
 15 17  4  0
 17 20  4  0
 18 23  1  0
 19 25  4  0
M  END
$$$$

 Created by Python create_sdf_string function

 25 28  0  0  0  0  0  0  0  0999 V2000
   13.1533   -5.2399   21.0682 C   0  0  0  0  0  0  0  0  0  0  0  0
   10.4729   -4.0295   17.6135 C   0  0  0  0  0  0  0  0  0  0  0  0
   10.4789   -4.3641   20.9564 C   0  0  0  0  0  0  0  0  0  0  0  0
    8.7421   -5.1412   16.3650 C   0  0  0  0  0  0  0  0  0  0  0  0
   11.4353   -2.9204   17.8044 C   0  0  0  0  0  0  0  0  0  0  0  0
   11.1529   -4.3028   22.1277 C   0  0  0  0  0  0  0  0  0  0  0  0
   11.1290   -4.8502   19.8052 C   0  0  0  0  0  0  0  0  0  0  0  0
   12.4329   -4.2159   24.4224 C   0  0  0  0  0  0  0  0  0  0  0  0
    3.4740   -9.0387   16.5022 C   0  0  0  0  0  0  0  0  0  0  0  0
    6.8384   -7.9290   17.5282 N   0  0  0  0  0  0  0  0  0  0  0  0
    9.4126   -5.9853   18.4899 C   0  0  0  0  0  0  0  0  0  0  0  0
    4.2064  -10.3242   18.3302 C   0  0  0  0  0  0  0  0  0  0  0  0
    9.6599   -4.1551   16.4796 N   0  0  0  0  0  0  0  0  0  0  0  0
    7.0644   -6.4612   15.7375 N   0  0  0  0  0  0  0  0  0  0  0  0
    5.3549   -9.6322   18.3190 C   0  0  0  0  0  0  0  0  0  0  0  0
   10.3704   -4.9638   18.6510 C   0  0  0  0  0  0  0  0  0  0  0  0
    5.5935   -8.6419   17.4234 C   0  0  0  0  0  0  0  0  0  0  0  0
   13.0726   -4.6648   23.3394 O   0  0  0  0  0  0  0  0  0  0  0  0
    8.5955   -6.0705   17.3996 C   0  0  0  0  0  0  0  0  0  0  0  0
    4.6223   -8.3832   16.5030 C   0  0  0  0  0  0  0  0  0  0  0  0
   12.4690   -5.2624   19.9024 C   0  0  0  0  0  0  0  0  0  0  0  0
    3.2548   -9.9919   17.4189 C   0  0  0  0  0  0  0  0  0  0  0  0
   12.4767   -4.7393   22.1790 C   0  0  0  0  0  0  0  0  0  0  0  0
    7.8593   -5.3772   15.3569 N   0  0  0  0  0  0  0  0  0  0  0  0
    7.4412   -6.9038   16.9283 C   0  0  0  0  0  0  0  0  0  0  0  0
  1 21  4  0
  1 23  4  0
  2  5  1  0
  2 13  4  0
  2 16  4  0
  3  6  4  0
  3  7  4  0
  4 13  4  0
  4 19  4  0
  4 24  4  0
  6 23  4  0
  7 16  1  0
  7 21  4  0
  8 18  1  0
  9 20  4  0
  9 22  4  0
 10 17  1  0
 10 25  1  0
 11 16  4  0
 11 19  4  0
 12 15  4  0
 12 22  4  0
 14 24  4  0
 14 25  4  0
 15 17  4  0
 17 20  4  0
 18 23  1  0
 19 25  4  0
M  END
$$$$

 Created by Python create_sdf_string function

 25 28  0  0  0  0  0  0  0  0999 V2000
   13.1533   -5.2399   21.0682 C   0  0  0  0  0  0  0  0  0  0  0  0
   10.4729   -4.0295   17.6135 C   0  0  0  0  0  0  0  0  0  0  0  0
   10.4789   -4.3641   20.9564 C   0  0  0  0  0  0  0  0  0  0  0  0
    8.7421   -5.1412   16.3650 C   0  0  0  0  0  0  0  0  0  0  0  0
   11.4353   -2.9204   17.8044 C   0  0  0  0  0  0  0  0  0  0  0  0
   11.1529   -4.3028   22.1277 C   0  0  0  0  0  0  0  0  0  0  0  0
   11.1290   -4.8502   19.8052 C   0  0  0  0  0  0  0  0  0  0  0  0
   12.4329   -4.2159   24.4224 C   0  0  0  0  0  0  0  0  0  0  0  0
    3.4740   -9.0387   16.5022 C   0  0  0  0  0  0  0  0  0  0  0  0
    6.8384   -7.9290   17.5282 N   0  0  0  0  0  0  0  0  0  0  0  0
    9.4126   -5.9853   18.4899 C   0  0  0  0  0  0  0  0  0  0  0  0
    4.2064  -10.3242   18.3302 C   0  0  0  0  0  0  0  0  0  0  0  0
    9.6599   -4.1551   16.4796 N   0  0  0  0  0  0  0  0  0  0  0  0
    7.0644   -6.4612   15.7375 N   0  0  0  0  0  0  0  0  0  0  0  0
    5.3549   -9.6322   18.3190 C   0  0  0  0  0  0  0  0  0  0  0  0
   10.3704   -4.9638   18.6510 C   0  0  0  0  0  0  0  0  0  0  0  0
    5.5935   -8.6419   17.4234 C   0  0  0  0  0  0  0  0  0  0  0  0
   13.0726   -4.6648   23.3394 O   0  0  0  0  0  0  0  0  0  0  0  0
    8.5955   -6.0705   17.3996 C   0  0  0  0  0  0  0  0  0  0  0  0
    4.6223   -8.3832   16.5030 C   0  0  0  0  0  0  0  0  0  0  0  0
   12.4690   -5.2624   19.9024 C   0  0  0  0  0  0  0  0  0  0  0  0
    3.2548   -9.9919   17.4189 C   0  0  0  0  0  0  0  0  0  0  0  0
   12.4767   -4.7393   22.1790 C   0  0  0  0  0  0  0  0  0  0  0  0
    7.8593   -5.3772   15.3569 N   0  0  0  0  0  0  0  0  0  0  0  0
    7.4412   -6.9038   16.9283 C   0  0  0  0  0  0  0  0  0  0  0  0
  1 21  4  0
  1 23  4  0
  2  5  1  0
  2 13  4  0
  2 16  4  0
  3  6  4  0
  3  7  4  0
  4 13  4  0
  4 19  4  0
  4 24  4  0
  6 23  4  0
  7 16  1  0
  7 21  4  0
  8 18  1  0
  9 20  4  0
  9 22  4  0
 10 17  1  0
 10 25  1  0
 11 16  4  0
 11 19  4  0
 12 15  4  0
 12 22  4  0
 14 24  4  0
 14 25  4  0
 15 17  4  0
 17 20  4  0
 18 23  1  0
 19 25  4  0
M  END
$$$$

 Created by Python create_sdf_string function

 25 28  0  0  0  0  0  0  0  0999 V2000
   13.1533   -5.2399   21.0682 C   0  0  0  0  0  0  0  0  0  0  0  0
   10.4729   -4.0295   17.6135 C   0  0  0  0  0  0  0  0  0  0  0  0
   10.4789   -4.3641   20.9564 C   0  0  0  0  0  0  0  0  0  0  0  0
    8.7421   -5.1412   16.3650 C   0  0  0  0  0  0  0  0  0  0  0  0
   11.4353   -2.9204   17.8044 C   0  0  0  0  0  0  0  0  0  0  0  0
   11.1529   -4.3028   22.1277 C   0  0  0  0  0  0  0  0  0  0  0  0
   11.1290   -4.8502   19.8052 C   0  0  0  0  0  0  0  0  0  0  0  0
   12.4329   -4.2159   24.4224 C   0  0  0  0  0  0  0  0  0  0  0  0
    3.4740   -9.0387   16.5022 C   0  0  0  0  0  0  0  0  0  0  0  0
    6.8384   -7.9290   17.5282 N   0  0  0  0  0  0  0  0  0  0  0  0
    9.4126   -5.9853   18.4899 C   0  0  0  0  0  0  0  0  0  0  0  0
    4.2064  -10.3242   18.3302 C   0  0  0  0  0  0  0  0  0  0  0  0
    9.6599   -4.1551   16.4796 N   0  0  0  0  0  0  0  0  0  0  0  0
    7.0644   -6.4612   15.7375 N   0  0  0  0  0  0  0  0  0  0  0  0
    5.3549   -9.6322   18.3190 C   0  0  0  0  0  0  0  0  0  0  0  0
   10.3704   -4.9638   18.6510 C   0  0  0  0  0  0  0  0  0  0  0  0
    5.5935   -8.6419   17.4234 C   0  0  0  0  0  0  0  0  0  0  0  0
   13.0726   -4.6648   23.3394 O   0  0  0  0  0  0  0  0  0  0  0  0
    8.5955   -6.0705   17.3996 C   0  0  0  0  0  0  0  0  0  0  0  0
    4.6223   -8.3832   16.5030 C   0  0  0  0  0  0  0  0  0  0  0  0
   12.4690   -5.2624   19.9024 C   0  0  0  0  0  0  0  0  0  0  0  0
    3.2548   -9.9919   17.4189 C   0  0  0  0  0  0  0  0  0  0  0  0
   12.4767   -4.7393   22.1790 C   0  0  0  0  0  0  0  0  0  0  0  0
    7.8593   -5.3772   15.3569 N   0  0  0  0  0  0  0  0  0  0  0  0
    7.4412   -6.9038   16.9283 C   0  0  0  0  0  0  0  0  0  0  0  0
  1 21  4  0
  1 23  4  0
  2  5  1  0
  2 13  4  0
  2 16  4  0
  3  6  4  0
  3  7  4  0
  4 13  4  0
  4 19  4  0
  4 24  4  0
  6 23  4  0
  7 16  1  0
  7 21  4  0
  8 18  1  0
  9 20  4  0
  9 22  4  0
 10 17  1  0
 10 25  1  0
 11 16  4  0
 11 19  4  0
 12 15  4  0
 12 22  4  0
 14 24  4  0
 14 25  4  0
 15 17  4  0
 17 20  4  0
 18 23  1  0
 19 25  4  0
M  END
$$$$

 Created by Python create_sdf_string function

 25 28  0  0  0  0  0  0  0  0999 V2000
   13.1533   -5.2399   21.0682 C   0  0  0  0  0  0  0  0  0  0  0  0
   10.4729   -4.0295   17.6135 C   0  0  0  0  0  0  0  0  0  0  0  0
   10.4789   -4.3641   20.9564 C   0  0  0  0  0  0  0  0  0  0  0  0
    8.7421   -5.1412   16.3650 C   0  0  0  0  0  0  0  0  0  0  0  0
   11.4353   -2.9204   17.8044 C   0  0  0  0  0  0  0  0  0  0  0  0
   11.1529   -4.3028   22.1277 C   0  0  0  0  0  0  0  0  0  0  0  0
   11.1290   -4.8502   19.8052 C   0  0  0  0  0  0  0  0  0  0  0  0
   12.4329   -4.2159   24.4224 C   0  0  0  0  0  0  0  0  0  0  0  0
    3.4740   -9.0387   16.5022 C   0  0  0  0  0  0  0  0  0  0  0  0
    6.8384   -7.9290   17.5282 N   0  0  0  0  0  0  0  0  0  0  0  0
    9.4126   -5.9853   18.4899 C   0  0  0  0  0  0  0  0  0  0  0  0
    4.2064  -10.3242   18.3302 C   0  0  0  0  0  0  0  0  0  0  0  0
    9.6599   -4.1551   16.4796 N   0  0  0  0  0  0  0  0  0  0  0  0
    7.0644   -6.4612   15.7375 N   0  0  0  0  0  0  0  0  0  0  0  0
    5.3549   -9.6322   18.3190 C   0  0  0  0  0  0  0  0  0  0  0  0
   10.3704   -4.9638   18.6510 C   0  0  0  0  0  0  0  0  0  0  0  0
    5.5935   -8.6419   17.4234 C   0  0  0  0  0  0  0  0  0  0  0  0
   13.0726   -4.6648   23.3394 O   0  0  0  0  0  0  0  0  0  0  0  0
    8.5955   -6.0705   17.3996 C   0  0  0  0  0  0  0  0  0  0  0  0
    4.6223   -8.3832   16.5030 C   0  0  0  0  0  0  0  0  0  0  0  0
   12.4690   -5.2624   19.9024 C   0  0  0  0  0  0  0  0  0  0  0  0
    3.2548   -9.9919   17.4189 C   0  0  0  0  0  0  0  0  0  0  0  0
   12.4767   -4.7393   22.1790 C   0  0  0  0  0  0  0  0  0  0  0  0
    7.8593   -5.3772   15.3569 N   0  0  0  0  0  0  0  0  0  0  0  0
    7.4412   -6.9038   16.9283 C   0  0  0  0  0  0  0  0  0  0  0  0
  1 21  4  0
  1 23  4  0
  2  5  1  0
  2 13  4  0
  2 16  4  0
  3  6  4  0
  3  7  4  0
  4 13  4  0
  4 19  4  0
  4 24  4  0
  6 23  4  0
  7 16  1  0
  7 21  4  0
  8 18  1  0
  9 20  4  0
  9 22  4  0
 10 17  1  0
 10 25  1  0
 11 16  4  0
 11 19  4  0
 12 15  4  0
 12 22  4  0
 14 24  4  0
 14 25  4  0
 15 17  4  0
 17 20  4  0
 18 23  1  0
 19 25  4  0
M  END
$$$$

 Created by Python create_sdf_string function

 25 28  0  0  0  0  0  0  0  0999 V2000
   13.1533   -5.2399   21.0682 C   0  0  0  0  0  0  0  0  0  0  0  0
   10.4729   -4.0295   17.6135 C   0  0  0  0  0  0  0  0  0  0  0  0
   10.4789   -4.3641   20.9564 C   0  0  0  0  0  0  0  0  0  0  0  0
    8.7421   -5.1412   16.3650 C   0  0  0  0  0  0  0  0  0  0  0  0
   11.4353   -2.9204   17.8044 C   0  0  0  0  0  0  0  0  0  0  0  0
   11.1529   -4.3028   22.1277 C   0  0  0  0  0  0  0  0  0  0  0  0
   11.1290   -4.8502   19.8052 C   0  0  0  0  0  0  0  0  0  0  0  0
   12.4329   -4.2159   24.4224 C   0  0  0  0  0  0  0  0  0  0  0  0
    3.4740   -9.0387   16.5022 C   0  0  0  0  0  0  0  0  0  0  0  0
    6.8384   -7.9290   17.5282 N   0  0  0  0  0  0  0  0  0  0  0  0
    9.4126   -5.9853   18.4899 C   0  0  0  0  0  0  0  0  0  0  0  0
    4.2064  -10.3242   18.3302 C   0  0  0  0  0  0  0  0  0  0  0  0
    9.6599   -4.1551   16.4796 N   0  0  0  0  0  0  0  0  0  0  0  0
    7.0644   -6.4612   15.7375 N   0  0  0  0  0  0  0  0  0  0  0  0
    5.3549   -9.6322   18.3190 C   0  0  0  0  0  0  0  0  0  0  0  0
   10.3704   -4.9638   18.6510 C   0  0  0  0  0  0  0  0  0  0  0  0
    5.5935   -8.6419   17.4234 C   0  0  0  0  0  0  0  0  0  0  0  0
   13.0726   -4.6648   23.3394 O   0  0  0  0  0  0  0  0  0  0  0  0
    8.5955   -6.0705   17.3996 C   0  0  0  0  0  0  0  0  0  0  0  0
    4.6223   -8.3832   16.5030 C   0  0  0  0  0  0  0  0  0  0  0  0
   12.4690   -5.2624   19.9024 C   0  0  0  0  0  0  0  0  0  0  0  0
    3.2548   -9.9919   17.4189 C   0  0  0  0  0  0  0  0  0  0  0  0
   12.4767   -4.7393   22.1790 C   0  0  0  0  0  0  0  0  0  0  0  0
    7.8593   -5.3772   15.3569 N   0  0  0  0  0  0  0  0  0  0  0  0
    7.4412   -6.9038   16.9283 C   0  0  0  0  0  0  0  0  0  0  0  0
  1 21  4  0
  1 23  4  0
  2  5  1  0
  2 13  4  0
  2 16  4  0
  3  6  4  0
  3  7  4  0
  4 13  4  0
  4 19  4  0
  4 24  4  0
  6 23  4  0
  7 16  1  0
  7 21  4  0
  8 18  1  0
  9 20  4  0
  9 22  4  0
 10 17  1  0
 10 25  1  0
 11 16  4  0
 11 19  4  0
 12 15  4  0
 12 22  4  0
 14 24  4  0
 14 25  4  0
 15 17  4  0
 17 20  4  0
 18 23  1  0
 19 25  4  0
M  END
$$$$

 Created by Python create_sdf_string function

 25 28  0  0  0  0  0  0  0  0999 V2000
   13.1533   -5.2399   21.0682 C   0  0  0  0  0  0  0  0  0  0  0  0
   10.4729   -4.0295   17.6135 C   0  0  0  0  0  0  0  0  0  0  0  0
   10.4789   -4.3641   20.9564 C   0  0  0  0  0  0  0  0  0  0  0  0
    8.7421   -5.1412   16.3650 C   0  0  0  0  0  0  0  0  0  0  0  0
   11.4353   -2.9204   17.8044 C   0  0  0  0  0  0  0  0  0  0  0  0
   11.1529   -4.3028   22.1277 C   0  0  0  0  0  0  0  0  0  0  0  0
   11.1290   -4.8502   19.8052 C   0  0  0  0  0  0  0  0  0  0  0  0
   12.4329   -4.2159   24.4224 C   0  0  0  0  0  0  0  0  0  0  0  0
    3.4740   -9.0387   16.5022 C   0  0  0  0  0  0  0  0  0  0  0  0
    6.8384   -7.9290   17.5282 N   0  0  0  0  0  0  0  0  0  0  0  0
    9.4126   -5.9853   18.4899 C   0  0  0  0  0  0  0  0  0  0  0  0
    4.2064  -10.3242   18.3302 C   0  0  0  0  0  0  0  0  0  0  0  0
    9.6599   -4.1551   16.4796 N   0  0  0  0  0  0  0  0  0  0  0  0
    7.0644   -6.4612   15.7375 N   0  0  0  0  0  0  0  0  0  0  0  0
    5.3549   -9.6322   18.3190 C   0  0  0  0  0  0  0  0  0  0  0  0
   10.3704   -4.9638   18.6510 C   0  0  0  0  0  0  0  0  0  0  0  0
    5.5935   -8.6419   17.4234 C   0  0  0  0  0  0  0  0  0  0  0  0
   13.0726   -4.6648   23.3394 O   0  0  0  0  0  0  0  0  0  0  0  0
    8.5955   -6.0705   17.3996 C   0  0  0  0  0  0  0  0  0  0  0  0
    4.6223   -8.3832   16.5030 C   0  0  0  0  0  0  0  0  0  0  0  0
   12.4690   -5.2624   19.9024 C   0  0  0  0  0  0  0  0  0  0  0  0
    3.2548   -9.9919   17.4189 C   0  0  0  0  0  0  0  0  0  0  0  0
   12.4767   -4.7393   22.1790 C   0  0  0  0  0  0  0  0  0  0  0  0
    7.8593   -5.3772   15.3569 N   0  0  0  0  0  0  0  0  0  0  0  0
    7.4412   -6.9038   16.9283 C   0  0  0  0  0  0  0  0  0  0  0  0
  1 21  4  0
  1 23  4  0
  2  5  1  0
  2 13  4  0
  2 16  4  0
  3  6  4  0
  3  7  4  0
  4 13  4  0
  4 19  4  0
  4 24  4  0
  6 23  4  0
  7 16  1  0
  7 21  4  0
  8 18  1  0
  9 20  4  0
  9 22  4  0
 10 17  1  0
 10 25  1  0
 11 16  4  0
 11 19  4  0
 12 15  4  0
 12 22  4  0
 14 24  4  0
 14 25  4  0
 15 17  4  0
 17 20  4  0
 18 23  1  0
 19 25  4  0
M  END
$$$$

 Created by Python create_sdf_string function

 25 28  0  0  0  0  0  0  0  0999 V2000
   13.1533   -5.2399   21.0682 C   0  0  0  0  0  0  0  0  0  0  0  0
   10.4729   -4.0295   17.6135 C   0  0  0  0  0  0  0  0  0  0  0  0
   10.4789   -4.3641   20.9564 C   0  0  0  0  0  0  0  0  0  0  0  0
    8.7421   -5.1412   16.3650 C   0  0  0  0  0  0  0  0  0  0  0  0
   11.4353   -2.9204   17.8044 C   0  0  0  0  0  0  0  0  0  0  0  0
   11.1529   -4.3028   22.1277 C   0  0  0  0  0  0  0  0  0  0  0  0
   11.1290   -4.8502   19.8052 C   0  0  0  0  0  0  0  0  0  0  0  0
   12.4329   -4.2159   24.4224 C   0  0  0  0  0  0  0  0  0  0  0  0
    3.4740   -9.0387   16.5022 C   0  0  0  0  0  0  0  0  0  0  0  0
    6.8384   -7.9290   17.5282 N   0  0  0  0  0  0  0  0  0  0  0  0
    9.4126   -5.9853   18.4899 C   0  0  0  0  0  0  0  0  0  0  0  0
    4.2064  -10.3242   18.3302 C   0  0  0  0  0  0  0  0  0  0  0  0
    9.6599   -4.1551   16.4796 N   0  0  0  0  0  0  0  0  0  0  0  0
    7.0644   -6.4612   15.7375 N   0  0  0  0  0  0  0  0  0  0  0  0
    5.3549   -9.6322   18.3190 C   0  0  0  0  0  0  0  0  0  0  0  0
   10.3704   -4.9638   18.6510 C   0  0  0  0  0  0  0  0  0  0  0  0
    5.5935   -8.6419   17.4234 C   0  0  0  0  0  0  0  0  0  0  0  0
   13.0726   -4.6648   23.3394 O   0  0  0  0  0  0  0  0  0  0  0  0
    8.5955   -6.0705   17.3996 C   0  0  0  0  0  0  0  0  0  0  0  0
    4.6223   -8.3832   16.5030 C   0  0  0  0  0  0  0  0  0  0  0  0
   12.4690   -5.2624   19.9024 C   0  0  0  0  0  0  0  0  0  0  0  0
    3.2548   -9.9919   17.4189 C   0  0  0  0  0  0  0  0  0  0  0  0
   12.4767   -4.7393   22.1790 C   0  0  0  0  0  0  0  0  0  0  0  0
    7.8593   -5.3772   15.3569 N   0  0  0  0  0  0  0  0  0  0  0  0
    7.4412   -6.9038   16.9283 C   0  0  0  0  0  0  0  0  0  0  0  0
  1 21  4  0
  1 23  4  0
  2  5  1  0
  2 13  4  0
  2 16  4  0
  3  6  4  0
  3  7  4  0
  4 13  4  0
  4 19  4  0
  4 24  4  0
  6 23  4  0
  7 16  1  0
  7 21  4  0
  8 18  1  0
  9 20  4  0
  9 22  4  0
 10 17  1  0
 10 25  1  0
 11 16  4  0
 11 19  4  0
 12 15  4  0
 12 22  4  0
 14 24  4  0
 14 25  4  0
 15 17  4  0
 17 20  4  0
 18 23  1  0
 19 25  4  0
M  END
$$$$

 Created by Python create_sdf_string function

 25 28  0  0  0  0  0  0  0  0999 V2000
   13.1533   -5.2399   21.0682 C   0  0  0  0  0  0  0  0  0  0  0  0
   10.4729   -4.0295   17.6135 C   0  0  0  0  0  0  0  0  0  0  0  0
   10.4789   -4.3641   20.9564 C   0  0  0  0  0  0  0  0  0  0  0  0
    8.7421   -5.1412   16.3650 C   0  0  0  0  0  0  0  0  0  0  0  0
   11.4353   -2.9204   17.8044 C   0  0  0  0  0  0  0  0  0  0  0  0
   11.1529   -4.3028   22.1277 C   0  0  0  0  0  0  0  0  0  0  0  0
   11.1290   -4.8502   19.8052 C   0  0  0  0  0  0  0  0  0  0  0  0
   12.4329   -4.2159   24.4224 C   0  0  0  0  0  0  0  0  0  0  0  0
    3.4740   -9.0387   16.5022 C   0  0  0  0  0  0  0  0  0  0  0  0
    6.8384   -7.9290   17.5282 N   0  0  0  0  0  0  0  0  0  0  0  0
    9.4126   -5.9853   18.4899 C   0  0  0  0  0  0  0  0  0  0  0  0
    4.2064  -10.3242   18.3302 C   0  0  0  0  0  0  0  0  0  0  0  0
    9.6599   -4.1551   16.4796 N   0  0  0  0  0  0  0  0  0  0  0  0
    7.0644   -6.4612   15.7375 N   0  0  0  0  0  0  0  0  0  0  0  0
    5.3549   -9.6322   18.3190 C   0  0  0  0  0  0  0  0  0  0  0  0
   10.3704   -4.9638   18.6510 C   0  0  0  0  0  0  0  0  0  0  0  0
    5.5935   -8.6419   17.4234 C   0  0  0  0  0  0  0  0  0  0  0  0
   13.0726   -4.6648   23.3394 O   0  0  0  0  0  0  0  0  0  0  0  0
    8.5955   -6.0705   17.3996 C   0  0  0  0  0  0  0  0  0  0  0  0
    4.6223   -8.3832   16.5030 C   0  0  0  0  0  0  0  0  0  0  0  0
   12.4690   -5.2624   19.9024 C   0  0  0  0  0  0  0  0  0  0  0  0
    3.2548   -9.9919   17.4189 C   0  0  0  0  0  0  0  0  0  0  0  0
   12.4767   -4.7393   22.1790 C   0  0  0  0  0  0  0  0  0  0  0  0
    7.8593   -5.3772   15.3569 N   0  0  0  0  0  0  0  0  0  0  0  0
    7.4412   -6.9038   16.9283 C   0  0  0  0  0  0  0  0  0  0  0  0
  1 21  4  0
  1 23  4  0
  2  5  1  0
  2 13  4  0
  2 16  4  0
  3  6  4  0
  3  7  4  0
  4 13  4  0
  4 19  4  0
  4 24  4  0
  6 23  4  0
  7 16  1  0
  7 21  4  0
  8 18  1  0
  9 20  4  0
  9 22  4  0
 10 17  1  0
 10 25  1  0
 11 16  4  0
 11 19  4  0
 12 15  4  0
 12 22  4  0
 14 24  4  0
 14 25  4  0
 15 17  4  0
 17 20  4  0
 18 23  1  0
 19 25  4  0
M  END
$$$$

 Created by Python create_sdf_string function

 25 28  0  0  0  0  0  0  0  0999 V2000
   13.1533   -5.2399   21.0682 C   0  0  0  0  0  0  0  0  0  0  0  0
   10.4729   -4.0295   17.6135 C   0  0  0  0  0  0  0  0  0  0  0  0
   10.4789   -4.3641   20.9564 C   0  0  0  0  0  0  0  0  0  0  0  0
    8.7421   -5.1412   16.3650 C   0  0  0  0  0  0  0  0  0  0  0  0
   11.4353   -2.9204   17.8044 C   0  0  0  0  0  0  0  0  0  0  0  0
   11.1529   -4.3028   22.1277 C   0  0  0  0  0  0  0  0  0  0  0  0
   11.1290   -4.8502   19.8052 C   0  0  0  0  0  0  0  0  0  0  0  0
   12.4329   -4.2159   24.4224 C   0  0  0  0  0  0  0  0  0  0  0  0
    3.4740   -9.0387   16.5022 C   0  0  0  0  0  0  0  0  0  0  0  0
    6.8384   -7.9290   17.5282 N   0  0  0  0  0  0  0  0  0  0  0  0
    9.4126   -5.9853   18.4899 C   0  0  0  0  0  0  0  0  0  0  0  0
    4.2064  -10.3242   18.3302 C   0  0  0  0  0  0  0  0  0  0  0  0
    9.6599   -4.1551   16.4796 N   0  0  0  0  0  0  0  0  0  0  0  0
    7.0644   -6.4612   15.7375 N   0  0  0  0  0  0  0  0  0  0  0  0
    5.3549   -9.6322   18.3190 C   0  0  0  0  0  0  0  0  0  0  0  0
   10.3704   -4.9638   18.6510 C   0  0  0  0  0  0  0  0  0  0  0  0
    5.5935   -8.6419   17.4234 C   0  0  0  0  0  0  0  0  0  0  0  0
   13.0726   -4.6648   23.3394 O   0  0  0  0  0  0  0  0  0  0  0  0
    8.5955   -6.0705   17.3996 C   0  0  0  0  0  0  0  0  0  0  0  0
    4.6223   -8.3832   16.5030 C   0  0  0  0  0  0  0  0  0  0  0  0
   12.4690   -5.2624   19.9024 C   0  0  0  0  0  0  0  0  0  0  0  0
    3.2548   -9.9919   17.4189 C   0  0  0  0  0  0  0  0  0  0  0  0
   12.4767   -4.7393   22.1790 C   0  0  0  0  0  0  0  0  0  0  0  0
    7.8593   -5.3772   15.3569 N   0  0  0  0  0  0  0  0  0  0  0  0
    7.4412   -6.9038   16.9283 C   0  0  0  0  0  0  0  0  0  0  0  0
  1 21  4  0
  1 23  4  0
  2  5  1  0
  2 13  4  0
  2 16  4  0
  3  6  4  0
  3  7  4  0
  4 13  4  0
  4 19  4  0
  4 24  4  0
  6 23  4  0
  7 16  1  0
  7 21  4  0
  8 18  1  0
  9 20  4  0
  9 22  4  0
 10 17  1  0
 10 25  1  0
 11 16  4  0
 11 19  4  0
 12 15  4  0
 12 22  4  0
 14 24  4  0
 14 25  4  0
 15 17  4  0
 17 20  4  0
 18 23  1  0
 19 25  4  0
M  END
$$$$

 Created by Python create_sdf_string function

 25 28  0  0  0  0  0  0  0  0999 V2000
   13.1533   -5.2399   21.0682 C   0  0  0  0  0  0  0  0  0  0  0  0
   10.4729   -4.0295   17.6135 C   0  0  0  0  0  0  0  0  0  0  0  0
   10.4789   -4.3641   20.9564 C   0  0  0  0  0  0  0  0  0  0  0  0
    8.7421   -5.1412   16.3650 C   0  0  0  0  0  0  0  0  0  0  0  0
   11.4353   -2.9204   17.8044 C   0  0  0  0  0  0  0  0  0  0  0  0
   11.1529   -4.3028   22.1277 C   0  0  0  0  0  0  0  0  0  0  0  0
   11.1290   -4.8502   19.8052 C   0  0  0  0  0  0  0  0  0  0  0  0
   12.4329   -4.2159   24.4224 C   0  0  0  0  0  0  0  0  0  0  0  0
    3.4740   -9.0387   16.5022 C   0  0  0  0  0  0  0  0  0  0  0  0
    6.8384   -7.9290   17.5282 N   0  0  0  0  0  0  0  0  0  0  0  0
    9.4126   -5.9853   18.4899 C   0  0  0  0  0  0  0  0  0  0  0  0
    4.2064  -10.3242   18.3302 C   0  0  0  0  0  0  0  0  0  0  0  0
    9.6599   -4.1551   16.4796 N   0  0  0  0  0  0  0  0  0  0  0  0
    7.0644   -6.4612   15.7375 N   0  0  0  0  0  0  0  0  0  0  0  0
    5.3549   -9.6322   18.3190 C   0  0  0  0  0  0  0  0  0  0  0  0
   10.3704   -4.9638   18.6510 C   0  0  0  0  0  0  0  0  0  0  0  0
    5.5935   -8.6419   17.4234 C   0  0  0  0  0  0  0  0  0  0  0  0
   13.0726   -4.6648   23.3394 O   0  0  0  0  0  0  0  0  0  0  0  0
    8.5955   -6.0705   17.3996 C   0  0  0  0  0  0  0  0  0  0  0  0
    4.6223   -8.3832   16.5030 C   0  0  0  0  0  0  0  0  0  0  0  0
   12.4690   -5.2624   19.9024 C   0  0  0  0  0  0  0  0  0  0  0  0
    3.2548   -9.9919   17.4189 C   0  0  0  0  0  0  0  0  0  0  0  0
   12.4767   -4.7393   22.1790 C   0  0  0  0  0  0  0  0  0  0  0  0
    7.8593   -5.3772   15.3569 N   0  0  0  0  0  0  0  0  0  0  0  0
    7.4412   -6.9038   16.9283 C   0  0  0  0  0  0  0  0  0  0  0  0
  1 21  4  0
  1 23  4  0
  2  5  1  0
  2 13  4  0
  2 16  4  0
  3  6  4  0
  3  7  4  0
  4 13  4  0
  4 19  4  0
  4 24  4  0
  6 23  4  0
  7 16  1  0
  7 21  4  0
  8 18  1  0
  9 20  4  0
  9 22  4  0
 10 17  1  0
 10 25  1  0
 11 16  4  0
 11 19  4  0
 12 15  4  0
 12 22  4  0
 14 24  4  0
 14 25  4  0
 15 17  4  0
 17 20  4  0
 18 23  1  0
 19 25  4  0
M  END
$$$$

 Created by Python create_sdf_string function

 25 28  0  0  0  0  0  0  0  0999 V2000
   13.1533   -5.2399   21.0682 C   0  0  0  0  0  0  0  0  0  0  0  0
   10.4729   -4.0295   17.6135 C   0  0  0  0  0  0  0  0  0  0  0  0
   10.4789   -4.3641   20.9564 C   0  0  0  0  0  0  0  0  0  0  0  0
    8.7421   -5.1412   16.3650 C   0  0  0  0  0  0  0  0  0  0  0  0
   11.4353   -2.9204   17.8044 C   0  0  0  0  0  0  0  0  0  0  0  0
   11.1529   -4.3028   22.1277 C   0  0  0  0  0  0  0  0  0  0  0  0
   11.1290   -4.8502   19.8052 C   0  0  0  0  0  0  0  0  0  0  0  0
   12.4329   -4.2159   24.4224 C   0  0  0  0  0  0  0  0  0  0  0  0
    3.4740   -9.0387   16.5022 C   0  0  0  0  0  0  0  0  0  0  0  0
    6.8384   -7.9290   17.5282 N   0  0  0  0  0  0  0  0  0  0  0  0
    9.4126   -5.9853   18.4899 C   0  0  0  0  0  0  0  0  0  0  0  0
    4.2064  -10.3242   18.3302 C   0  0  0  0  0  0  0  0  0  0  0  0
    9.6599   -4.1551   16.4796 N   0  0  0  0  0  0  0  0  0  0  0  0
    7.0644   -6.4612   15.7375 N   0  0  0  0  0  0  0  0  0  0  0  0
    5.3549   -9.6322   18.3190 C   0  0  0  0  0  0  0  0  0  0  0  0
   10.3704   -4.9638   18.6510 C   0  0  0  0  0  0  0  0  0  0  0  0
    5.5935   -8.6419   17.4234 C   0  0  0  0  0  0  0  0  0  0  0  0
   13.0726   -4.6648   23.3394 O   0  0  0  0  0  0  0  0  0  0  0  0
    8.5955   -6.0705   17.3996 C   0  0  0  0  0  0  0  0  0  0  0  0
    4.6223   -8.3832   16.5030 C   0  0  0  0  0  0  0  0  0  0  0  0
   12.4690   -5.2624   19.9024 C   0  0  0  0  0  0  0  0  0  0  0  0
    3.2548   -9.9919   17.4189 C   0  0  0  0  0  0  0  0  0  0  0  0
   12.4767   -4.7393   22.1790 C   0  0  0  0  0  0  0  0  0  0  0  0
    7.8593   -5.3772   15.3569 N   0  0  0  0  0  0  0  0  0  0  0  0
    7.4412   -6.9038   16.9283 C   0  0  0  0  0  0  0  0  0  0  0  0
  1 21  4  0
  1 23  4  0
  2  5  1  0
  2 13  4  0
  2 16  4  0
  3  6  4  0
  3  7  4  0
  4 13  4  0
  4 19  4  0
  4 24  4  0
  6 23  4  0
  7 16  1  0
  7 21  4  0
  8 18  1  0
  9 20  4  0
  9 22  4  0
 10 17  1  0
 10 25  1  0
 11 16  4  0
 11 19  4  0
 12 15  4  0
 12 22  4  0
 14 24  4  0
 14 25  4  0
 15 17  4  0
 17 20  4  0
 18 23  1  0
 19 25  4  0
M  END
$$$$

 Created by Python create_sdf_string function

 25 28  0  0  0  0  0  0  0  0999 V2000
   13.1533   -5.2399   21.0682 C   0  0  0  0  0  0  0  0  0  0  0  0
   10.4729   -4.0295   17.6135 C   0  0  0  0  0  0  0  0  0  0  0  0
   10.4789   -4.3641   20.9564 C   0  0  0  0  0  0  0  0  0  0  0  0
    8.7421   -5.1412   16.3650 C   0  0  0  0  0  0  0  0  0  0  0  0
   11.4353   -2.9204   17.8044 C   0  0  0  0  0  0  0  0  0  0  0  0
   11.1529   -4.3028   22.1277 C   0  0  0  0  0  0  0  0  0  0  0  0
   11.1290   -4.8502   19.8052 C   0  0  0  0  0  0  0  0  0  0  0  0
   12.4329   -4.2159   24.4224 C   0  0  0  0  0  0  0  0  0  0  0  0
    3.4740   -9.0387   16.5022 C   0  0  0  0  0  0  0  0  0  0  0  0
    6.8384   -7.9290   17.5282 N   0  0  0  0  0  0  0  0  0  0  0  0
    9.4126   -5.9853   18.4899 C   0  0  0  0  0  0  0  0  0  0  0  0
    4.2064  -10.3242   18.3302 C   0  0  0  0  0  0  0  0  0  0  0  0
    9.6599   -4.1551   16.4796 N   0  0  0  0  0  0  0  0  0  0  0  0
    7.0644   -6.4612   15.7375 N   0  0  0  0  0  0  0  0  0  0  0  0
    5.3549   -9.6322   18.3190 C   0  0  0  0  0  0  0  0  0  0  0  0
   10.3704   -4.9638   18.6510 C   0  0  0  0  0  0  0  0  0  0  0  0
    5.5935   -8.6419   17.4234 C   0  0  0  0  0  0  0  0  0  0  0  0
   13.0726   -4.6648   23.3394 O   0  0  0  0  0  0  0  0  0  0  0  0
    8.5955   -6.0705   17.3996 C   0  0  0  0  0  0  0  0  0  0  0  0
    4.6223   -8.3832   16.5030 C   0  0  0  0  0  0  0  0  0  0  0  0
   12.4690   -5.2624   19.9024 C   0  0  0  0  0  0  0  0  0  0  0  0
    3.2548   -9.9919   17.4189 C   0  0  0  0  0  0  0  0  0  0  0  0
   12.4767   -4.7393   22.1790 C   0  0  0  0  0  0  0  0  0  0  0  0
    7.8593   -5.3772   15.3569 N   0  0  0  0  0  0  0  0  0  0  0  0
    7.4412   -6.9038   16.9283 C   0  0  0  0  0  0  0  0  0  0  0  0
  1 21  4  0
  1 23  4  0
  2  5  1  0
  2 13  4  0
  2 16  4  0
  3  6  4  0
  3  7  4  0
  4 13  4  0
  4 19  4  0
  4 24  4  0
  6 23  4  0
  7 16  1  0
  7 21  4  0
  8 18  1  0
  9 20  4  0
  9 22  4  0
 10 17  1  0
 10 25  1  0
 11 16  4  0
 11 19  4  0
 12 15  4  0
 12 22  4  0
 14 24  4  0
 14 25  4  0
 15 17  4  0
 17 20  4  0
 18 23  1  0
 19 25  4  0
M  END
$$$$

 Created by Python create_sdf_string function

 25 28  0  0  0  0  0  0  0  0999 V2000
   13.1533   -5.2399   21.0682 C   0  0  0  0  0  0  0  0  0  0  0  0
   10.4729   -4.0295   17.6135 C   0  0  0  0  0  0  0  0  0  0  0  0
   10.4789   -4.3641   20.9564 C   0  0  0  0  0  0  0  0  0  0  0  0
    8.7421   -5.1412   16.3650 C   0  0  0  0  0  0  0  0  0  0  0  0
   11.4353   -2.9204   17.8044 C   0  0  0  0  0  0  0  0  0  0  0  0
   11.1529   -4.3028   22.1277 C   0  0  0  0  0  0  0  0  0  0  0  0
   11.1290   -4.8502   19.8052 C   0  0  0  0  0  0  0  0  0  0  0  0
   12.4329   -4.2159   24.4224 C   0  0  0  0  0  0  0  0  0  0  0  0
    3.4740   -9.0387   16.5022 C   0  0  0  0  0  0  0  0  0  0  0  0
    6.8384   -7.9290   17.5282 N   0  0  0  0  0  0  0  0  0  0  0  0
    9.4126   -5.9853   18.4899 C   0  0  0  0  0  0  0  0  0  0  0  0
    4.2064  -10.3242   18.3302 C   0  0  0  0  0  0  0  0  0  0  0  0
    9.6599   -4.1551   16.4796 N   0  0  0  0  0  0  0  0  0  0  0  0
    7.0644   -6.4612   15.7375 N   0  0  0  0  0  0  0  0  0  0  0  0
    5.3549   -9.6322   18.3190 C   0  0  0  0  0  0  0  0  0  0  0  0
   10.3704   -4.9638   18.6510 C   0  0  0  0  0  0  0  0  0  0  0  0
    5.5935   -8.6419   17.4234 C   0  0  0  0  0  0  0  0  0  0  0  0
   13.0726   -4.6648   23.3394 O   0  0  0  0  0  0  0  0  0  0  0  0
    8.5955   -6.0705   17.3996 C   0  0  0  0  0  0  0  0  0  0  0  0
    4.6223   -8.3832   16.5030 C   0  0  0  0  0  0  0  0  0  0  0  0
   12.4690   -5.2624   19.9024 C   0  0  0  0  0  0  0  0  0  0  0  0
    3.2548   -9.9919   17.4189 C   0  0  0  0  0  0  0  0  0  0  0  0
   12.4767   -4.7393   22.1790 C   0  0  0  0  0  0  0  0  0  0  0  0
    7.8593   -5.3772   15.3569 N   0  0  0  0  0  0  0  0  0  0  0  0
    7.4412   -6.9038   16.9283 C   0  0  0  0  0  0  0  0  0  0  0  0
  1 21  4  0
  1 23  4  0
  2  5  1  0
  2 13  4  0
  2 16  4  0
  3  6  4  0
  3  7  4  0
  4 13  4  0
  4 19  4  0
  4 24  4  0
  6 23  4  0
  7 16  1  0
  7 21  4  0
  8 18  1  0
  9 20  4  0
  9 22  4  0
 10 17  1  0
 10 25  1  0
 11 16  4  0
 11 19  4  0
 12 15  4  0
 12 22  4  0
 14 24  4  0
 14 25  4  0
 15 17  4  0
 17 20  4  0
 18 23  1  0
 19 25  4  0
M  END
$$$$

 Created by Python create_sdf_string function

 25 28  0  0  0  0  0  0  0  0999 V2000
   13.1533   -5.2399   21.0682 C   0  0  0  0  0  0  0  0  0  0  0  0
   10.4729   -4.0295   17.6135 C   0  0  0  0  0  0  0  0  0  0  0  0
   10.4789   -4.3641   20.9564 C   0  0  0  0  0  0  0  0  0  0  0  0
    8.7421   -5.1412   16.3650 C   0  0  0  0  0  0  0  0  0  0  0  0
   11.4353   -2.9204   17.8044 C   0  0  0  0  0  0  0  0  0  0  0  0
   11.1529   -4.3028   22.1277 C   0  0  0  0  0  0  0  0  0  0  0  0
   11.1290   -4.8502   19.8052 C   0  0  0  0  0  0  0  0  0  0  0  0
   12.4329   -4.2159   24.4224 C   0  0  0  0  0  0  0  0  0  0  0  0
    3.4740   -9.0387   16.5022 C   0  0  0  0  0  0  0  0  0  0  0  0
    6.8384   -7.9290   17.5282 N   0  0  0  0  0  0  0  0  0  0  0  0
    9.4126   -5.9853   18.4899 C   0  0  0  0  0  0  0  0  0  0  0  0
    4.2064  -10.3242   18.3302 C   0  0  0  0  0  0  0  0  0  0  0  0
    9.6599   -4.1551   16.4796 N   0  0  0  0  0  0  0  0  0  0  0  0
    7.0644   -6.4612   15.7375 N   0  0  0  0  0  0  0  0  0  0  0  0
    5.3549   -9.6322   18.3190 C   0  0  0  0  0  0  0  0  0  0  0  0
   10.3704   -4.9638   18.6510 C   0  0  0  0  0  0  0  0  0  0  0  0
    5.5935   -8.6419   17.4234 C   0  0  0  0  0  0  0  0  0  0  0  0
   13.0726   -4.6648   23.3394 O   0  0  0  0  0  0  0  0  0  0  0  0
    8.5955   -6.0705   17.3996 C   0  0  0  0  0  0  0  0  0  0  0  0
    4.6223   -8.3832   16.5030 C   0  0  0  0  0  0  0  0  0  0  0  0
   12.4690   -5.2624   19.9024 C   0  0  0  0  0  0  0  0  0  0  0  0
    3.2548   -9.9919   17.4189 C   0  0  0  0  0  0  0  0  0  0  0  0
   12.4767   -4.7393   22.1790 C   0  0  0  0  0  0  0  0  0  0  0  0
    7.8593   -5.3772   15.3569 N   0  0  0  0  0  0  0  0  0  0  0  0
    7.4412   -6.9038   16.9283 C   0  0  0  0  0  0  0  0  0  0  0  0
  1 21  4  0
  1 23  4  0
  2  5  1  0
  2 13  4  0
  2 16  4  0
  3  6  4  0
  3  7  4  0
  4 13  4  0
  4 19  4  0
  4 24  4  0
  6 23  4  0
  7 16  1  0
  7 21  4  0
  8 18  1  0
  9 20  4  0
  9 22  4  0
 10 17  1  0
 10 25  1  0
 11 16  4  0
 11 19  4  0
 12 15  4  0
 12 22  4  0
 14 24  4  0
 14 25  4  0
 15 17  4  0
 17 20  4  0
 18 23  1  0
 19 25  4  0
M  END
$$$$

 Created by Python create_sdf_string function

 25 28  0  0  0  0  0  0  0  0999 V2000
   13.1533   -5.2399   21.0682 C   0  0  0  0  0  0  0  0  0  0  0  0
   10.4729   -4.0295   17.6135 C   0  0  0  0  0  0  0  0  0  0  0  0
   10.4789   -4.3641   20.9564 C   0  0  0  0  0  0  0  0  0  0  0  0
    8.7421   -5.1412   16.3650 C   0  0  0  0  0  0  0  0  0  0  0  0
   11.4353   -2.9204   17.8044 C   0  0  0  0  0  0  0  0  0  0  0  0
   11.1529   -4.3028   22.1277 C   0  0  0  0  0  0  0  0  0  0  0  0
   11.1290   -4.8502   19.8052 C   0  0  0  0  0  0  0  0  0  0  0  0
   12.4329   -4.2159   24.4224 C   0  0  0  0  0  0  0  0  0  0  0  0
    3.4740   -9.0387   16.5022 C   0  0  0  0  0  0  0  0  0  0  0  0
    6.8384   -7.9290   17.5282 N   0  0  0  0  0  0  0  0  0  0  0  0
    9.4126   -5.9853   18.4899 C   0  0  0  0  0  0  0  0  0  0  0  0
    4.2064  -10.3242   18.3302 C   0  0  0  0  0  0  0  0  0  0  0  0
    9.6599   -4.1551   16.4796 N   0  0  0  0  0  0  0  0  0  0  0  0
    7.0644   -6.4612   15.7375 N   0  0  0  0  0  0  0  0  0  0  0  0
    5.3549   -9.6322   18.3190 C   0  0  0  0  0  0  0  0  0  0  0  0
   10.3704   -4.9638   18.6510 C   0  0  0  0  0  0  0  0  0  0  0  0
    5.5935   -8.6419   17.4234 C   0  0  0  0  0  0  0  0  0  0  0  0
   13.0726   -4.6648   23.3394 O   0  0  0  0  0  0  0  0  0  0  0  0
    8.5955   -6.0705   17.3996 C   0  0  0  0  0  0  0  0  0  0  0  0
    4.6223   -8.3832   16.5030 C   0  0  0  0  0  0  0  0  0  0  0  0
   12.4690   -5.2624   19.9024 C   0  0  0  0  0  0  0  0  0  0  0  0
    3.2548   -9.9919   17.4189 C   0  0  0  0  0  0  0  0  0  0  0  0
   12.4767   -4.7393   22.1790 C   0  0  0  0  0  0  0  0  0  0  0  0
    7.8593   -5.3772   15.3569 N   0  0  0  0  0  0  0  0  0  0  0  0
    7.4412   -6.9038   16.9283 C   0  0  0  0  0  0  0  0  0  0  0  0
  1 21  4  0
  1 23  4  0
  2  5  1  0
  2 13  4  0
  2 16  4  0
  3  6  4  0
  3  7  4  0
  4 13  4  0
  4 19  4  0
  4 24  4  0
  6 23  4  0
  7 16  1  0
  7 21  4  0
  8 18  1  0
  9 20  4  0
  9 22  4  0
 10 17  1  0
 10 25  1  0
 11 16  4  0
 11 19  4  0
 12 15  4  0
 12 22  4  0
 14 24  4  0
 14 25  4  0
 15 17  4  0
 17 20  4  0
 18 23  1  0
 19 25  4  0
M  END
$$$$

 Created by Python create_sdf_string function

 25 28  0  0  0  0  0  0  0  0999 V2000
   13.1533   -5.2399   21.0682 C   0  0  0  0  0  0  0  0  0  0  0  0
   10.4729   -4.0295   17.6135 C   0  0  0  0  0  0  0  0  0  0  0  0
   10.4789   -4.3641   20.9564 C   0  0  0  0  0  0  0  0  0  0  0  0
    8.7421   -5.1412   16.3650 C   0  0  0  0  0  0  0  0  0  0  0  0
   11.4353   -2.9204   17.8044 C   0  0  0  0  0  0  0  0  0  0  0  0
   11.1529   -4.3028   22.1277 C   0  0  0  0  0  0  0  0  0  0  0  0
   11.1290   -4.8502   19.8052 C   0  0  0  0  0  0  0  0  0  0  0  0
   12.4329   -4.2159   24.4224 C   0  0  0  0  0  0  0  0  0  0  0  0
    3.4740   -9.0387   16.5022 C   0  0  0  0  0  0  0  0  0  0  0  0
    6.8384   -7.9290   17.5282 N   0  0  0  0  0  0  0  0  0  0  0  0
    9.4126   -5.9853   18.4899 C   0  0  0  0  0  0  0  0  0  0  0  0
    4.2064  -10.3242   18.3302 C   0  0  0  0  0  0  0  0  0  0  0  0
    9.6599   -4.1551   16.4796 N   0  0  0  0  0  0  0  0  0  0  0  0
    7.0644   -6.4612   15.7375 N   0  0  0  0  0  0  0  0  0  0  0  0
    5.3549   -9.6322   18.3190 C   0  0  0  0  0  0  0  0  0  0  0  0
   10.3704   -4.9638   18.6510 C   0  0  0  0  0  0  0  0  0  0  0  0
    5.5935   -8.6419   17.4234 C   0  0  0  0  0  0  0  0  0  0  0  0
   13.0726   -4.6648   23.3394 O   0  0  0  0  0  0  0  0  0  0  0  0
    8.5955   -6.0705   17.3996 C   0  0  0  0  0  0  0  0  0  0  0  0
    4.6223   -8.3832   16.5030 C   0  0  0  0  0  0  0  0  0  0  0  0
   12.4690   -5.2624   19.9024 C   0  0  0  0  0  0  0  0  0  0  0  0
    3.2548   -9.9919   17.4189 C   0  0  0  0  0  0  0  0  0  0  0  0
   12.4767   -4.7393   22.1790 C   0  0  0  0  0  0  0  0  0  0  0  0
    7.8593   -5.3772   15.3569 N   0  0  0  0  0  0  0  0  0  0  0  0
    7.4412   -6.9038   16.9283 C   0  0  0  0  0  0  0  0  0  0  0  0
  1 21  4  0
  1 23  4  0
  2  5  1  0
  2 13  4  0
  2 16  4  0
  3  6  4  0
  3  7  4  0
  4 13  4  0
  4 19  4  0
  4 24  4  0
  6 23  4  0
  7 16  1  0
  7 21  4  0
  8 18  1  0
  9 20  4  0
  9 22  4  0
 10 17  1  0
 10 25  1  0
 11 16  4  0
 11 19  4  0
 12 15  4  0
 12 22  4  0
 14 24  4  0
 14 25  4  0
 15 17  4  0
 17 20  4  0
 18 23  1  0
 19 25  4  0
M  END
$$$$

 Created by Python create_sdf_string function

 25 28  0  0  0  0  0  0  0  0999 V2000
   13.1533   -5.2399   21.0682 C   0  0  0  0  0  0  0  0  0  0  0  0
   10.4729   -4.0295   17.6135 C   0  0  0  0  0  0  0  0  0  0  0  0
   10.4789   -4.3641   20.9564 C   0  0  0  0  0  0  0  0  0  0  0  0
    8.7421   -5.1412   16.3650 C   0  0  0  0  0  0  0  0  0  0  0  0
   11.4353   -2.9204   17.8044 C   0  0  0  0  0  0  0  0  0  0  0  0
   11.1529   -4.3028   22.1277 C   0  0  0  0  0  0  0  0  0  0  0  0
   11.1290   -4.8502   19.8052 C   0  0  0  0  0  0  0  0  0  0  0  0
   12.4329   -4.2159   24.4224 C   0  0  0  0  0  0  0  0  0  0  0  0
    3.4740   -9.0387   16.5022 C   0  0  0  0  0  0  0  0  0  0  0  0
    6.8384   -7.9290   17.5282 N   0  0  0  0  0  0  0  0  0  0  0  0
    9.4126   -5.9853   18.4899 C   0  0  0  0  0  0  0  0  0  0  0  0
    4.2064  -10.3242   18.3302 C   0  0  0  0  0  0  0  0  0  0  0  0
    9.6599   -4.1551   16.4796 N   0  0  0  0  0  0  0  0  0  0  0  0
    7.0644   -6.4612   15.7375 N   0  0  0  0  0  0  0  0  0  0  0  0
    5.3549   -9.6322   18.3190 C   0  0  0  0  0  0  0  0  0  0  0  0
   10.3704   -4.9638   18.6510 C   0  0  0  0  0  0  0  0  0  0  0  0
    5.5935   -8.6419   17.4234 C   0  0  0  0  0  0  0  0  0  0  0  0
   13.0726   -4.6648   23.3394 O   0  0  0  0  0  0  0  0  0  0  0  0
    8.5955   -6.0705   17.3996 C   0  0  0  0  0  0  0  0  0  0  0  0
    4.6223   -8.3832   16.5030 C   0  0  0  0  0  0  0  0  0  0  0  0
   12.4690   -5.2624   19.9024 C   0  0  0  0  0  0  0  0  0  0  0  0
    3.2548   -9.9919   17.4189 C   0  0  0  0  0  0  0  0  0  0  0  0
   12.4767   -4.7393   22.1790 C   0  0  0  0  0  0  0  0  0  0  0  0
    7.8593   -5.3772   15.3569 N   0  0  0  0  0  0  0  0  0  0  0  0
    7.4412   -6.9038   16.9283 C   0  0  0  0  0  0  0  0  0  0  0  0
  1 21  4  0
  1 23  4  0
  2  5  1  0
  2 13  4  0
  2 16  4  0
  3  6  4  0
  3  7  4  0
  4 13  4  0
  4 19  4  0
  4 24  4  0
  6 23  4  0
  7 16  1  0
  7 21  4  0
  8 18  1  0
  9 20  4  0
  9 22  4  0
 10 17  1  0
 10 25  1  0
 11 16  4  0
 11 19  4  0
 12 15  4  0
 12 22  4  0
 14 24  4  0
 14 25  4  0
 15 17  4  0
 17 20  4  0
 18 23  1  0
 19 25  4  0
M  END
$$$$

 Created by Python create_sdf_string function

 25 28  0  0  0  0  0  0  0  0999 V2000
   13.1533   -5.2399   21.0682 C   0  0  0  0  0  0  0  0  0  0  0  0
   10.4729   -4.0295   17.6135 C   0  0  0  0  0  0  0  0  0  0  0  0
   10.4789   -4.3641   20.9564 C   0  0  0  0  0  0  0  0  0  0  0  0
    8.7421   -5.1412   16.3650 C   0  0  0  0  0  0  0  0  0  0  0  0
   11.4353   -2.9204   17.8044 C   0  0  0  0  0  0  0  0  0  0  0  0
   11.1529   -4.3028   22.1277 C   0  0  0  0  0  0  0  0  0  0  0  0
   11.1290   -4.8502   19.8052 C   0  0  0  0  0  0  0  0  0  0  0  0
   12.4329   -4.2159   24.4224 C   0  0  0  0  0  0  0  0  0  0  0  0
    3.4740   -9.0387   16.5022 C   0  0  0  0  0  0  0  0  0  0  0  0
    6.8384   -7.9290   17.5282 N   0  0  0  0  0  0  0  0  0  0  0  0
    9.4126   -5.9853   18.4899 C   0  0  0  0  0  0  0  0  0  0  0  0
    4.2064  -10.3242   18.3302 C   0  0  0  0  0  0  0  0  0  0  0  0
    9.6599   -4.1551   16.4796 N   0  0  0  0  0  0  0  0  0  0  0  0
    7.0644   -6.4612   15.7375 N   0  0  0  0  0  0  0  0  0  0  0  0
    5.3549   -9.6322   18.3190 C   0  0  0  0  0  0  0  0  0  0  0  0
   10.3704   -4.9638   18.6510 C   0  0  0  0  0  0  0  0  0  0  0  0
    5.5935   -8.6419   17.4234 C   0  0  0  0  0  0  0  0  0  0  0  0
   13.0726   -4.6648   23.3394 O   0  0  0  0  0  0  0  0  0  0  0  0
    8.5955   -6.0705   17.3996 C   0  0  0  0  0  0  0  0  0  0  0  0
    4.6223   -8.3832   16.5030 C   0  0  0  0  0  0  0  0  0  0  0  0
   12.4690   -5.2624   19.9024 C   0  0  0  0  0  0  0  0  0  0  0  0
    3.2548   -9.9919   17.4189 C   0  0  0  0  0  0  0  0  0  0  0  0
   12.4767   -4.7393   22.1790 C   0  0  0  0  0  0  0  0  0  0  0  0
    7.8593   -5.3772   15.3569 N   0  0  0  0  0  0  0  0  0  0  0  0
    7.4412   -6.9038   16.9283 C   0  0  0  0  0  0  0  0  0  0  0  0
  1 21  4  0
  1 23  4  0
  2  5  1  0
  2 13  4  0
  2 16  4  0
  3  6  4  0
  3  7  4  0
  4 13  4  0
  4 19  4  0
  4 24  4  0
  6 23  4  0
  7 16  1  0
  7 21  4  0
  8 18  1  0
  9 20  4  0
  9 22  4  0
 10 17  1  0
 10 25  1  0
 11 16  4  0
 11 19  4  0
 12 15  4  0
 12 22  4  0
 14 24  4  0
 14 25  4  0
 15 17  4  0
 17 20  4  0
 18 23  1  0
 19 25  4  0
M  END
$$$$

 Created by Python create_sdf_string function

 25 28  0  0  0  0  0  0  0  0999 V2000
   13.1533   -5.2399   21.0682 C   0  0  0  0  0  0  0  0  0  0  0  0
   10.4729   -4.0295   17.6135 C   0  0  0  0  0  0  0  0  0  0  0  0
   10.4789   -4.3641   20.9564 C   0  0  0  0  0  0  0  0  0  0  0  0
    8.7421   -5.1412   16.3650 C   0  0  0  0  0  0  0  0  0  0  0  0
   11.4353   -2.9204   17.8044 C   0  0  0  0  0  0  0  0  0  0  0  0
   11.1529   -4.3028   22.1277 C   0  0  0  0  0  0  0  0  0  0  0  0
   11.1290   -4.8502   19.8052 C   0  0  0  0  0  0  0  0  0  0  0  0
   12.4329   -4.2159   24.4224 C   0  0  0  0  0  0  0  0  0  0  0  0
    3.4740   -9.0387   16.5022 C   0  0  0  0  0  0  0  0  0  0  0  0
    6.8384   -7.9290   17.5282 N   0  0  0  0  0  0  0  0  0  0  0  0
    9.4126   -5.9853   18.4899 C   0  0  0  0  0  0  0  0  0  0  0  0
    4.2064  -10.3242   18.3302 C   0  0  0  0  0  0  0  0  0  0  0  0
    9.6599   -4.1551   16.4796 N   0  0  0  0  0  0  0  0  0  0  0  0
    7.0644   -6.4612   15.7375 N   0  0  0  0  0  0  0  0  0  0  0  0
    5.3549   -9.6322   18.3190 C   0  0  0  0  0  0  0  0  0  0  0  0
   10.3704   -4.9638   18.6510 C   0  0  0  0  0  0  0  0  0  0  0  0
    5.5935   -8.6419   17.4234 C   0  0  0  0  0  0  0  0  0  0  0  0
   13.0726   -4.6648   23.3394 O   0  0  0  0  0  0  0  0  0  0  0  0
    8.5955   -6.0705   17.3996 C   0  0  0  0  0  0  0  0  0  0  0  0
    4.6223   -8.3832   16.5030 C   0  0  0  0  0  0  0  0  0  0  0  0
   12.4690   -5.2624   19.9024 C   0  0  0  0  0  0  0  0  0  0  0  0
    3.2548   -9.9919   17.4189 C   0  0  0  0  0  0  0  0  0  0  0  0
   12.4767   -4.7393   22.1790 C   0  0  0  0  0  0  0  0  0  0  0  0
    7.8593   -5.3772   15.3569 N   0  0  0  0  0  0  0  0  0  0  0  0
    7.4412   -6.9038   16.9283 C   0  0  0  0  0  0  0  0  0  0  0  0
  1 21  4  0
  1 23  4  0
  2  5  1  0
  2 13  4  0
  2 16  4  0
  3  6  4  0
  3  7  4  0
  4 13  4  0
  4 19  4  0
  4 24  4  0
  6 23  4  0
  7 16  1  0
  7 21  4  0
  8 18  1  0
  9 20  4  0
  9 22  4  0
 10 17  1  0
 10 25  1  0
 11 16  4  0
 11 19  4  0
 12 15  4  0
 12 22  4  0
 14 24  4  0
 14 25  4  0
 15 17  4  0
 17 20  4  0
 18 23  1  0
 19 25  4  0
M  END
$$$$

 Created by Python create_sdf_string function

 25 28  0  0  0  0  0  0  0  0999 V2000
   13.1533   -5.2399   21.0682 C   0  0  0  0  0  0  0  0  0  0  0  0
   10.4729   -4.0295   17.6135 C   0  0  0  0  0  0  0  0  0  0  0  0
   10.4789   -4.3641   20.9564 C   0  0  0  0  0  0  0  0  0  0  0  0
    8.7421   -5.1412   16.3650 C   0  0  0  0  0  0  0  0  0  0  0  0
   11.4353   -2.9204   17.8044 C   0  0  0  0  0  0  0  0  0  0  0  0
   11.1529   -4.3028   22.1277 C   0  0  0  0  0  0  0  0  0  0  0  0
   11.1290   -4.8502   19.8052 C   0  0  0  0  0  0  0  0  0  0  0  0
   12.4329   -4.2159   24.4224 C   0  0  0  0  0  0  0  0  0  0  0  0
    3.4740   -9.0387   16.5022 C   0  0  0  0  0  0  0  0  0  0  0  0
    6.8384   -7.9290   17.5282 N   0  0  0  0  0  0  0  0  0  0  0  0
    9.4126   -5.9853   18.4899 C   0  0  0  0  0  0  0  0  0  0  0  0
    4.2064  -10.3242   18.3302 C   0  0  0  0  0  0  0  0  0  0  0  0
    9.6599   -4.1551   16.4796 N   0  0  0  0  0  0  0  0  0  0  0  0
    7.0644   -6.4612   15.7375 N   0  0  0  0  0  0  0  0  0  0  0  0
    5.3549   -9.6322   18.3190 C   0  0  0  0  0  0  0  0  0  0  0  0
   10.3704   -4.9638   18.6510 C   0  0  0  0  0  0  0  0  0  0  0  0
    5.5935   -8.6419   17.4234 C   0  0  0  0  0  0  0  0  0  0  0  0
   13.0726   -4.6648   23.3394 O   0  0  0  0  0  0  0  0  0  0  0  0
    8.5955   -6.0705   17.3996 C   0  0  0  0  0  0  0  0  0  0  0  0
    4.6223   -8.3832   16.5030 C   0  0  0  0  0  0  0  0  0  0  0  0
   12.4690   -5.2624   19.9024 C   0  0  0  0  0  0  0  0  0  0  0  0
    3.2548   -9.9919   17.4189 C   0  0  0  0  0  0  0  0  0  0  0  0
   12.4767   -4.7393   22.1790 C   0  0  0  0  0  0  0  0  0  0  0  0
    7.8593   -5.3772   15.3569 N   0  0  0  0  0  0  0  0  0  0  0  0
    7.4412   -6.9038   16.9283 C   0  0  0  0  0  0  0  0  0  0  0  0
  1 21  4  0
  1 23  4  0
  2  5  1  0
  2 13  4  0
  2 16  4  0
  3  6  4  0
  3  7  4  0
  4 13  4  0
  4 19  4  0
  4 24  4  0
  6 23  4  0
  7 16  1  0
  7 21  4  0
  8 18  1  0
  9 20  4  0
  9 22  4  0
 10 17  1  0
 10 25  1  0
 11 16  4  0
 11 19  4  0
 12 15  4  0
 12 22  4  0
 14 24  4  0
 14 25  4  0
 15 17  4  0
 17 20  4  0
 18 23  1  0
 19 25  4  0
M  END
$$$$

 Created by Python create_sdf_string function

 25 28  0  0  0  0  0  0  0  0999 V2000
   13.1533   -5.2399   21.0682 C   0  0  0  0  0  0  0  0  0  0  0  0
   10.4729   -4.0295   17.6135 C   0  0  0  0  0  0  0  0  0  0  0  0
   10.4789   -4.3641   20.9564 C   0  0  0  0  0  0  0  0  0  0  0  0
    8.7421   -5.1412   16.3650 C   0  0  0  0  0  0  0  0  0  0  0  0
   11.4353   -2.9204   17.8044 C   0  0  0  0  0  0  0  0  0  0  0  0
   11.1529   -4.3028   22.1277 C   0  0  0  0  0  0  0  0  0  0  0  0
   11.1290   -4.8502   19.8052 C   0  0  0  0  0  0  0  0  0  0  0  0
   12.4329   -4.2159   24.4224 C   0  0  0  0  0  0  0  0  0  0  0  0
    3.4740   -9.0387   16.5022 C   0  0  0  0  0  0  0  0  0  0  0  0
    6.8384   -7.9290   17.5282 N   0  0  0  0  0  0  0  0  0  0  0  0
    9.4126   -5.9853   18.4899 C   0  0  0  0  0  0  0  0  0  0  0  0
    4.2064  -10.3242   18.3302 C   0  0  0  0  0  0  0  0  0  0  0  0
    9.6599   -4.1551   16.4796 N   0  0  0  0  0  0  0  0  0  0  0  0
    7.0644   -6.4612   15.7375 N   0  0  0  0  0  0  0  0  0  0  0  0
    5.3549   -9.6322   18.3190 C   0  0  0  0  0  0  0  0  0  0  0  0
   10.3704   -4.9638   18.6510 C   0  0  0  0  0  0  0  0  0  0  0  0
    5.5935   -8.6419   17.4234 C   0  0  0  0  0  0  0  0  0  0  0  0
   13.0726   -4.6648   23.3394 O   0  0  0  0  0  0  0  0  0  0  0  0
    8.5955   -6.0705   17.3996 C   0  0  0  0  0  0  0  0  0  0  0  0
    4.6223   -8.3832   16.5030 C   0  0  0  0  0  0  0  0  0  0  0  0
   12.4690   -5.2624   19.9024 C   0  0  0  0  0  0  0  0  0  0  0  0
    3.2548   -9.9919   17.4189 C   0  0  0  0  0  0  0  0  0  0  0  0
   12.4767   -4.7393   22.1790 C   0  0  0  0  0  0  0  0  0  0  0  0
    7.8593   -5.3772   15.3569 N   0  0  0  0  0  0  0  0  0  0  0  0
    7.4412   -6.9038   16.9283 C   0  0  0  0  0  0  0  0  0  0  0  0
  1 21  4  0
  1 23  4  0
  2  5  1  0
  2 13  4  0
  2 16  4  0
  3  6  4  0
  3  7  4  0
  4 13  4  0
  4 19  4  0
  4 24  4  0
  6 23  4  0
  7 16  1  0
  7 21  4  0
  8 18  1  0
  9 20  4  0
  9 22  4  0
 10 17  1  0
 10 25  1  0
 11 16  4  0
 11 19  4  0
 12 15  4  0
 12 22  4  0
 14 24  4  0
 14 25  4  0
 15 17  4  0
 17 20  4  0
 18 23  1  0
 19 25  4  0
M  END
$$$$

 Created by Python create_sdf_string function

 25 28  0  0  0  0  0  0  0  0999 V2000
   13.1533   -5.2399   21.0682 C   0  0  0  0  0  0  0  0  0  0  0  0
   10.4729   -4.0295   17.6135 C   0  0  0  0  0  0  0  0  0  0  0  0
   10.4789   -4.3641   20.9564 C   0  0  0  0  0  0  0  0  0  0  0  0
    8.7421   -5.1412   16.3650 C   0  0  0  0  0  0  0  0  0  0  0  0
   11.4353   -2.9204   17.8044 C   0  0  0  0  0  0  0  0  0  0  0  0
   11.1529   -4.3028   22.1277 C   0  0  0  0  0  0  0  0  0  0  0  0
   11.1290   -4.8502   19.8052 C   0  0  0  0  0  0  0  0  0  0  0  0
   12.4329   -4.2159   24.4224 C   0  0  0  0  0  0  0  0  0  0  0  0
    3.4740   -9.0387   16.5022 C   0  0  0  0  0  0  0  0  0  0  0  0
    6.8384   -7.9290   17.5282 N   0  0  0  0  0  0  0  0  0  0  0  0
    9.4126   -5.9853   18.4899 C   0  0  0  0  0  0  0  0  0  0  0  0
    4.2064  -10.3242   18.3302 C   0  0  0  0  0  0  0  0  0  0  0  0
    9.6599   -4.1551   16.4796 N   0  0  0  0  0  0  0  0  0  0  0  0
    7.0644   -6.4612   15.7375 N   0  0  0  0  0  0  0  0  0  0  0  0
    5.3549   -9.6322   18.3190 C   0  0  0  0  0  0  0  0  0  0  0  0
   10.3704   -4.9638   18.6510 C   0  0  0  0  0  0  0  0  0  0  0  0
    5.5935   -8.6419   17.4234 C   0  0  0  0  0  0  0  0  0  0  0  0
   13.0726   -4.6648   23.3394 O   0  0  0  0  0  0  0  0  0  0  0  0
    8.5955   -6.0705   17.3996 C   0  0  0  0  0  0  0  0  0  0  0  0
    4.6223   -8.3832   16.5030 C   0  0  0  0  0  0  0  0  0  0  0  0
   12.4690   -5.2624   19.9024 C   0  0  0  0  0  0  0  0  0  0  0  0
    3.2548   -9.9919   17.4189 C   0  0  0  0  0  0  0  0  0  0  0  0
   12.4767   -4.7393   22.1790 C   0  0  0  0  0  0  0  0  0  0  0  0
    7.8593   -5.3772   15.3569 N   0  0  0  0  0  0  0  0  0  0  0  0
    7.4412   -6.9038   16.9283 C   0  0  0  0  0  0  0  0  0  0  0  0
  1 21  4  0
  1 23  4  0
  2  5  1  0
  2 13  4  0
  2 16  4  0
  3  6  4  0
  3  7  4  0
  4 13  4  0
  4 19  4  0
  4 24  4  0
  6 23  4  0
  7 16  1  0
  7 21  4  0
  8 18  1  0
  9 20  4  0
  9 22  4  0
 10 17  1  0
 10 25  1  0
 11 16  4  0
 11 19  4  0
 12 15  4  0
 12 22  4  0
 14 24  4  0
 14 25  4  0
 15 17  4  0
 17 20  4  0
 18 23  1  0
 19 25  4  0
M  END
$$$$

 Created by Python create_sdf_string function

 25 28  0  0  0  0  0  0  0  0999 V2000
   13.1533   -5.2399   21.0682 C   0  0  0  0  0  0  0  0  0  0  0  0
   10.4729   -4.0295   17.6135 C   0  0  0  0  0  0  0  0  0  0  0  0
   10.4789   -4.3641   20.9564 C   0  0  0  0  0  0  0  0  0  0  0  0
    8.7421   -5.1412   16.3650 C   0  0  0  0  0  0  0  0  0  0  0  0
   11.4353   -2.9204   17.8044 C   0  0  0  0  0  0  0  0  0  0  0  0
   11.1529   -4.3028   22.1277 C   0  0  0  0  0  0  0  0  0  0  0  0
   11.1290   -4.8502   19.8052 C   0  0  0  0  0  0  0  0  0  0  0  0
   12.4329   -4.2159   24.4224 C   0  0  0  0  0  0  0  0  0  0  0  0
    3.4740   -9.0387   16.5022 C   0  0  0  0  0  0  0  0  0  0  0  0
    6.8384   -7.9290   17.5282 N   0  0  0  0  0  0  0  0  0  0  0  0
    9.4126   -5.9853   18.4899 C   0  0  0  0  0  0  0  0  0  0  0  0
    4.2064  -10.3242   18.3302 C   0  0  0  0  0  0  0  0  0  0  0  0
    9.6599   -4.1551   16.4796 N   0  0  0  0  0  0  0  0  0  0  0  0
    7.0644   -6.4612   15.7375 N   0  0  0  0  0  0  0  0  0  0  0  0
    5.3549   -9.6322   18.3190 C   0  0  0  0  0  0  0  0  0  0  0  0
   10.3704   -4.9638   18.6510 C   0  0  0  0  0  0  0  0  0  0  0  0
    5.5935   -8.6419   17.4234 C   0  0  0  0  0  0  0  0  0  0  0  0
   13.0726   -4.6648   23.3394 O   0  0  0  0  0  0  0  0  0  0  0  0
    8.5955   -6.0705   17.3996 C   0  0  0  0  0  0  0  0  0  0  0  0
    4.6223   -8.3832   16.5030 C   0  0  0  0  0  0  0  0  0  0  0  0
   12.4690   -5.2624   19.9024 C   0  0  0  0  0  0  0  0  0  0  0  0
    3.2548   -9.9919   17.4189 C   0  0  0  0  0  0  0  0  0  0  0  0
   12.4767   -4.7393   22.1790 C   0  0  0  0  0  0  0  0  0  0  0  0
    7.8593   -5.3772   15.3569 N   0  0  0  0  0  0  0  0  0  0  0  0
    7.4412   -6.9038   16.9283 C   0  0  0  0  0  0  0  0  0  0  0  0
  1 21  4  0
  1 23  4  0
  2  5  1  0
  2 13  4  0
  2 16  4  0
  3  6  4  0
  3  7  4  0
  4 13  4  0
  4 19  4  0
  4 24  4  0
  6 23  4  0
  7 16  1  0
  7 21  4  0
  8 18  1  0
  9 20  4  0
  9 22  4  0
 10 17  1  0
 10 25  1  0
 11 16  4  0
 11 19  4  0
 12 15  4  0
 12 22  4  0
 14 24  4  0
 14 25  4  0
 15 17  4  0
 17 20  4  0
 18 23  1  0
 19 25  4  0
M  END
$$$$

 Created by Python create_sdf_string function

 25 28  0  0  0  0  0  0  0  0999 V2000
   13.1533   -5.2399   21.0682 C   0  0  0  0  0  0  0  0  0  0  0  0
   10.4729   -4.0295   17.6135 C   0  0  0  0  0  0  0  0  0  0  0  0
   10.4789   -4.3641   20.9564 C   0  0  0  0  0  0  0  0  0  0  0  0
    8.7421   -5.1412   16.3650 C   0  0  0  0  0  0  0  0  0  0  0  0
   11.4353   -2.9204   17.8044 C   0  0  0  0  0  0  0  0  0  0  0  0
   11.1529   -4.3028   22.1277 C   0  0  0  0  0  0  0  0  0  0  0  0
   11.1290   -4.8502   19.8052 C   0  0  0  0  0  0  0  0  0  0  0  0
   12.4329   -4.2159   24.4224 C   0  0  0  0  0  0  0  0  0  0  0  0
    3.4740   -9.0387   16.5022 C   0  0  0  0  0  0  0  0  0  0  0  0
    6.8384   -7.9290   17.5282 N   0  0  0  0  0  0  0  0  0  0  0  0
    9.4126   -5.9853   18.4899 C   0  0  0  0  0  0  0  0  0  0  0  0
    4.2064  -10.3242   18.3302 C   0  0  0  0  0  0  0  0  0  0  0  0
    9.6599   -4.1551   16.4796 N   0  0  0  0  0  0  0  0  0  0  0  0
    7.0644   -6.4612   15.7375 N   0  0  0  0  0  0  0  0  0  0  0  0
    5.3549   -9.6322   18.3190 C   0  0  0  0  0  0  0  0  0  0  0  0
   10.3704   -4.9638   18.6510 C   0  0  0  0  0  0  0  0  0  0  0  0
    5.5935   -8.6419   17.4234 C   0  0  0  0  0  0  0  0  0  0  0  0
   13.0726   -4.6648   23.3394 O   0  0  0  0  0  0  0  0  0  0  0  0
    8.5955   -6.0705   17.3996 C   0  0  0  0  0  0  0  0  0  0  0  0
    4.6223   -8.3832   16.5030 C   0  0  0  0  0  0  0  0  0  0  0  0
   12.4690   -5.2624   19.9024 C   0  0  0  0  0  0  0  0  0  0  0  0
    3.2548   -9.9919   17.4189 C   0  0  0  0  0  0  0  0  0  0  0  0
   12.4767   -4.7393   22.1790 C   0  0  0  0  0  0  0  0  0  0  0  0
    7.8593   -5.3772   15.3569 N   0  0  0  0  0  0  0  0  0  0  0  0
    7.4412   -6.9038   16.9283 C   0  0  0  0  0  0  0  0  0  0  0  0
  1 21  4  0
  1 23  4  0
  2  5  1  0
  2 13  4  0
  2 16  4  0
  3  6  4  0
  3  7  4  0
  4 13  4  0
  4 19  4  0
  4 24  4  0
  6 23  4  0
  7 16  1  0
  7 21  4  0
  8 18  1  0
  9 20  4  0
  9 22  4  0
 10 17  1  0
 10 25  1  0
 11 16  4  0
 11 19  4  0
 12 15  4  0
 12 22  4  0
 14 24  4  0
 14 25  4  0
 15 17  4  0
 17 20  4  0
 18 23  1  0
 19 25  4  0
M  END
$$$$

 Created by Python create_sdf_string function

 25 28  0  0  0  0  0  0  0  0999 V2000
   13.1533   -5.2399   21.0682 C   0  0  0  0  0  0  0  0  0  0  0  0
   10.4729   -4.0295   17.6135 C   0  0  0  0  0  0  0  0  0  0  0  0
   10.4789   -4.3641   20.9564 C   0  0  0  0  0  0  0  0  0  0  0  0
    8.7421   -5.1412   16.3650 C   0  0  0  0  0  0  0  0  0  0  0  0
   11.4353   -2.9204   17.8044 C   0  0  0  0  0  0  0  0  0  0  0  0
   11.1529   -4.3028   22.1277 C   0  0  0  0  0  0  0  0  0  0  0  0
   11.1290   -4.8502   19.8052 C   0  0  0  0  0  0  0  0  0  0  0  0
   12.4329   -4.2159   24.4224 C   0  0  0  0  0  0  0  0  0  0  0  0
    3.4740   -9.0387   16.5022 C   0  0  0  0  0  0  0  0  0  0  0  0
    6.8384   -7.9290   17.5282 N   0  0  0  0  0  0  0  0  0  0  0  0
    9.4126   -5.9853   18.4899 C   0  0  0  0  0  0  0  0  0  0  0  0
    4.2064  -10.3242   18.3302 C   0  0  0  0  0  0  0  0  0  0  0  0
    9.6599   -4.1551   16.4796 N   0  0  0  0  0  0  0  0  0  0  0  0
    7.0644   -6.4612   15.7375 N   0  0  0  0  0  0  0  0  0  0  0  0
    5.3549   -9.6322   18.3190 C   0  0  0  0  0  0  0  0  0  0  0  0
   10.3704   -4.9638   18.6510 C   0  0  0  0  0  0  0  0  0  0  0  0
    5.5935   -8.6419   17.4234 C   0  0  0  0  0  0  0  0  0  0  0  0
   13.0726   -4.6648   23.3394 O   0  0  0  0  0  0  0  0  0  0  0  0
    8.5955   -6.0705   17.3996 C   0  0  0  0  0  0  0  0  0  0  0  0
    4.6223   -8.3832   16.5030 C   0  0  0  0  0  0  0  0  0  0  0  0
   12.4690   -5.2624   19.9024 C   0  0  0  0  0  0  0  0  0  0  0  0
    3.2548   -9.9919   17.4189 C   0  0  0  0  0  0  0  0  0  0  0  0
   12.4767   -4.7393   22.1790 C   0  0  0  0  0  0  0  0  0  0  0  0
    7.8593   -5.3772   15.3569 N   0  0  0  0  0  0  0  0  0  0  0  0
    7.4412   -6.9038   16.9283 C   0  0  0  0  0  0  0  0  0  0  0  0
  1 21  4  0
  1 23  4  0
  2  5  1  0
  2 13  4  0
  2 16  4  0
  3  6  4  0
  3  7  4  0
  4 13  4  0
  4 19  4  0
  4 24  4  0
  6 23  4  0
  7 16  1  0
  7 21  4  0
  8 18  1  0
  9 20  4  0
  9 22  4  0
 10 17  1  0
 10 25  1  0
 11 16  4  0
 11 19  4  0
 12 15  4  0
 12 22  4  0
 14 24  4  0
 14 25  4  0
 15 17  4  0
 17 20  4  0
 18 23  1  0
 19 25  4  0
M  END
$$$$

 Created by Python create_sdf_string function

 25 28  0  0  0  0  0  0  0  0999 V2000
   13.1533   -5.2399   21.0682 C   0  0  0  0  0  0  0  0  0  0  0  0
   10.4729   -4.0295   17.6135 C   0  0  0  0  0  0  0  0  0  0  0  0
   10.4789   -4.3641   20.9564 C   0  0  0  0  0  0  0  0  0  0  0  0
    8.7421   -5.1412   16.3650 C   0  0  0  0  0  0  0  0  0  0  0  0
   11.4353   -2.9204   17.8044 C   0  0  0  0  0  0  0  0  0  0  0  0
   11.1529   -4.3028   22.1277 C   0  0  0  0  0  0  0  0  0  0  0  0
   11.1290   -4.8502   19.8052 C   0  0  0  0  0  0  0  0  0  0  0  0
   12.4329   -4.2159   24.4224 C   0  0  0  0  0  0  0  0  0  0  0  0
    3.4740   -9.0387   16.5022 C   0  0  0  0  0  0  0  0  0  0  0  0
    6.8384   -7.9290   17.5282 N   0  0  0  0  0  0  0  0  0  0  0  0
    9.4126   -5.9853   18.4899 C   0  0  0  0  0  0  0  0  0  0  0  0
    4.2064  -10.3242   18.3302 C   0  0  0  0  0  0  0  0  0  0  0  0
    9.6599   -4.1551   16.4796 N   0  0  0  0  0  0  0  0  0  0  0  0
    7.0644   -6.4612   15.7375 N   0  0  0  0  0  0  0  0  0  0  0  0
    5.3549   -9.6322   18.3190 C   0  0  0  0  0  0  0  0  0  0  0  0
   10.3704   -4.9638   18.6510 C   0  0  0  0  0  0  0  0  0  0  0  0
    5.5935   -8.6419   17.4234 C   0  0  0  0  0  0  0  0  0  0  0  0
   13.0726   -4.6648   23.3394 O   0  0  0  0  0  0  0  0  0  0  0  0
    8.5955   -6.0705   17.3996 C   0  0  0  0  0  0  0  0  0  0  0  0
    4.6223   -8.3832   16.5030 C   0  0  0  0  0  0  0  0  0  0  0  0
   12.4690   -5.2624   19.9024 C   0  0  0  0  0  0  0  0  0  0  0  0
    3.2548   -9.9919   17.4189 C   0  0  0  0  0  0  0  0  0  0  0  0
   12.4767   -4.7393   22.1790 C   0  0  0  0  0  0  0  0  0  0  0  0
    7.8593   -5.3772   15.3569 N   0  0  0  0  0  0  0  0  0  0  0  0
    7.4412   -6.9038   16.9283 C   0  0  0  0  0  0  0  0  0  0  0  0
  1 21  4  0
  1 23  4  0
  2  5  1  0
  2 13  4  0
  2 16  4  0
  3  6  4  0
  3  7  4  0
  4 13  4  0
  4 19  4  0
  4 24  4  0
  6 23  4  0
  7 16  1  0
  7 21  4  0
  8 18  1  0
  9 20  4  0
  9 22  4  0
 10 17  1  0
 10 25  1  0
 11 16  4  0
 11 19  4  0
 12 15  4  0
 12 22  4  0
 14 24  4  0
 14 25  4  0
 15 17  4  0
 17 20  4  0
 18 23  1  0
 19 25  4  0
M  END
$$$$

 Created by Python create_sdf_string function

 25 28  0  0  0  0  0  0  0  0999 V2000
   13.1533   -5.2399   21.0682 C   0  0  0  0  0  0  0  0  0  0  0  0
   10.4729   -4.0295   17.6135 C   0  0  0  0  0  0  0  0  0  0  0  0
   10.4789   -4.3641   20.9564 C   0  0  0  0  0  0  0  0  0  0  0  0
    8.7421   -5.1412   16.3650 C   0  0  0  0  0  0  0  0  0  0  0  0
   11.4353   -2.9204   17.8044 C   0  0  0  0  0  0  0  0  0  0  0  0
   11.1529   -4.3028   22.1277 C   0  0  0  0  0  0  0  0  0  0  0  0
   11.1290   -4.8502   19.8052 C   0  0  0  0  0  0  0  0  0  0  0  0
   12.4329   -4.2159   24.4224 C   0  0  0  0  0  0  0  0  0  0  0  0
    3.4740   -9.0387   16.5022 C   0  0  0  0  0  0  0  0  0  0  0  0
    6.8384   -7.9290   17.5282 N   0  0  0  0  0  0  0  0  0  0  0  0
    9.4126   -5.9853   18.4899 C   0  0  0  0  0  0  0  0  0  0  0  0
    4.2064  -10.3242   18.3302 C   0  0  0  0  0  0  0  0  0  0  0  0
    9.6599   -4.1551   16.4796 N   0  0  0  0  0  0  0  0  0  0  0  0
    7.0644   -6.4612   15.7375 N   0  0  0  0  0  0  0  0  0  0  0  0
    5.3549   -9.6322   18.3190 C   0  0  0  0  0  0  0  0  0  0  0  0
   10.3704   -4.9638   18.6510 C   0  0  0  0  0  0  0  0  0  0  0  0
    5.5935   -8.6419   17.4234 C   0  0  0  0  0  0  0  0  0  0  0  0
   13.0726   -4.6648   23.3394 O   0  0  0  0  0  0  0  0  0  0  0  0
    8.5955   -6.0705   17.3996 C   0  0  0  0  0  0  0  0  0  0  0  0
    4.6223   -8.3832   16.5030 C   0  0  0  0  0  0  0  0  0  0  0  0
   12.4690   -5.2624   19.9024 C   0  0  0  0  0  0  0  0  0  0  0  0
    3.2548   -9.9919   17.4189 C   0  0  0  0  0  0  0  0  0  0  0  0
   12.4767   -4.7393   22.1790 C   0  0  0  0  0  0  0  0  0  0  0  0
    7.8593   -5.3772   15.3569 N   0  0  0  0  0  0  0  0  0  0  0  0
    7.4412   -6.9038   16.9283 C   0  0  0  0  0  0  0  0  0  0  0  0
  1 21  4  0
  1 23  4  0
  2  5  1  0
  2 13  4  0
  2 16  4  0
  3  6  4  0
  3  7  4  0
  4 13  4  0
  4 19  4  0
  4 24  4  0
  6 23  4  0
  7 16  1  0
  7 21  4  0
  8 18  1  0
  9 20  4  0
  9 22  4  0
 10 17  1  0
 10 25  1  0
 11 16  4  0
 11 19  4  0
 12 15  4  0
 12 22  4  0
 14 24  4  0
 14 25  4  0
 15 17  4  0
 17 20  4  0
 18 23  1  0
 19 25  4  0
M  END
$$$$

 Created by Python create_sdf_string function

 25 28  0  0  0  0  0  0  0  0999 V2000
   13.1533   -5.2399   21.0682 C   0  0  0  0  0  0  0  0  0  0  0  0
   10.4729   -4.0295   17.6135 C   0  0  0  0  0  0  0  0  0  0  0  0
   10.4789   -4.3641   20.9564 C   0  0  0  0  0  0  0  0  0  0  0  0
    8.7421   -5.1412   16.3650 C   0  0  0  0  0  0  0  0  0  0  0  0
   11.4353   -2.9204   17.8044 C   0  0  0  0  0  0  0  0  0  0  0  0
   11.1529   -4.3028   22.1277 C   0  0  0  0  0  0  0  0  0  0  0  0
   11.1290   -4.8502   19.8052 C   0  0  0  0  0  0  0  0  0  0  0  0
   12.4329   -4.2159   24.4224 C   0  0  0  0  0  0  0  0  0  0  0  0
    3.4740   -9.0387   16.5022 C   0  0  0  0  0  0  0  0  0  0  0  0
    6.8384   -7.9290   17.5282 N   0  0  0  0  0  0  0  0  0  0  0  0
    9.4126   -5.9853   18.4899 C   0  0  0  0  0  0  0  0  0  0  0  0
    4.2064  -10.3242   18.3302 C   0  0  0  0  0  0  0  0  0  0  0  0
    9.6599   -4.1551   16.4796 N   0  0  0  0  0  0  0  0  0  0  0  0
    7.0644   -6.4612   15.7375 N   0  0  0  0  0  0  0  0  0  0  0  0
    5.3549   -9.6322   18.3190 C   0  0  0  0  0  0  0  0  0  0  0  0
   10.3704   -4.9638   18.6510 C   0  0  0  0  0  0  0  0  0  0  0  0
    5.5935   -8.6419   17.4234 C   0  0  0  0  0  0  0  0  0  0  0  0
   13.0726   -4.6648   23.3394 O   0  0  0  0  0  0  0  0  0  0  0  0
    8.5955   -6.0705   17.3996 C   0  0  0  0  0  0  0  0  0  0  0  0
    4.6223   -8.3832   16.5030 C   0  0  0  0  0  0  0  0  0  0  0  0
   12.4690   -5.2624   19.9024 C   0  0  0  0  0  0  0  0  0  0  0  0
    3.2548   -9.9919   17.4189 C   0  0  0  0  0  0  0  0  0  0  0  0
   12.4767   -4.7393   22.1790 C   0  0  0  0  0  0  0  0  0  0  0  0
    7.8593   -5.3772   15.3569 N   0  0  0  0  0  0  0  0  0  0  0  0
    7.4412   -6.9038   16.9283 C   0  0  0  0  0  0  0  0  0  0  0  0
  1 21  4  0
  1 23  4  0
  2  5  1  0
  2 13  4  0
  2 16  4  0
  3  6  4  0
  3  7  4  0
  4 13  4  0
  4 19  4  0
  4 24  4  0
  6 23  4  0
  7 16  1  0
  7 21  4  0
  8 18  1  0
  9 20  4  0
  9 22  4  0
 10 17  1  0
 10 25  1  0
 11 16  4  0
 11 19  4  0
 12 15  4  0
 12 22  4  0
 14 24  4  0
 14 25  4  0
 15 17  4  0
 17 20  4  0
 18 23  1  0
 19 25  4  0
M  END
$$$$

 Created by Python create_sdf_string function

 25 28  0  0  0  0  0  0  0  0999 V2000
   13.1533   -5.2399   21.0682 C   0  0  0  0  0  0  0  0  0  0  0  0
   10.4729   -4.0295   17.6135 C   0  0  0  0  0  0  0  0  0  0  0  0
   10.4789   -4.3641   20.9564 C   0  0  0  0  0  0  0  0  0  0  0  0
    8.7421   -5.1412   16.3650 C   0  0  0  0  0  0  0  0  0  0  0  0
   11.4353   -2.9204   17.8044 C   0  0  0  0  0  0  0  0  0  0  0  0
   11.1529   -4.3028   22.1277 C   0  0  0  0  0  0  0  0  0  0  0  0
   11.1290   -4.8502   19.8052 C   0  0  0  0  0  0  0  0  0  0  0  0
   12.4329   -4.2159   24.4224 C   0  0  0  0  0  0  0  0  0  0  0  0
    3.4740   -9.0387   16.5022 C   0  0  0  0  0  0  0  0  0  0  0  0
    6.8384   -7.9290   17.5282 N   0  0  0  0  0  0  0  0  0  0  0  0
    9.4126   -5.9853   18.4899 C   0  0  0  0  0  0  0  0  0  0  0  0
    4.2064  -10.3242   18.3302 C   0  0  0  0  0  0  0  0  0  0  0  0
    9.6599   -4.1551   16.4796 N   0  0  0  0  0  0  0  0  0  0  0  0
    7.0644   -6.4612   15.7375 N   0  0  0  0  0  0  0  0  0  0  0  0
    5.3549   -9.6322   18.3190 C   0  0  0  0  0  0  0  0  0  0  0  0
   10.3704   -4.9638   18.6510 C   0  0  0  0  0  0  0  0  0  0  0  0
    5.5935   -8.6419   17.4234 C   0  0  0  0  0  0  0  0  0  0  0  0
   13.0726   -4.6648   23.3394 O   0  0  0  0  0  0  0  0  0  0  0  0
    8.5955   -6.0705   17.3996 C   0  0  0  0  0  0  0  0  0  0  0  0
    4.6223   -8.3832   16.5030 C   0  0  0  0  0  0  0  0  0  0  0  0
   12.4690   -5.2624   19.9024 C   0  0  0  0  0  0  0  0  0  0  0  0
    3.2548   -9.9919   17.4189 C   0  0  0  0  0  0  0  0  0  0  0  0
   12.4767   -4.7393   22.1790 C   0  0  0  0  0  0  0  0  0  0  0  0
    7.8593   -5.3772   15.3569 N   0  0  0  0  0  0  0  0  0  0  0  0
    7.4412   -6.9038   16.9283 C   0  0  0  0  0  0  0  0  0  0  0  0
  1 21  4  0
  1 23  4  0
  2  5  1  0
  2 13  4  0
  2 16  4  0
  3  6  4  0
  3  7  4  0
  4 13  4  0
  4 19  4  0
  4 24  4  0
  6 23  4  0
  7 16  1  0
  7 21  4  0
  8 18  1  0
  9 20  4  0
  9 22  4  0
 10 17  1  0
 10 25  1  0
 11 16  4  0
 11 19  4  0
 12 15  4  0
 12 22  4  0
 14 24  4  0
 14 25  4  0
 15 17  4  0
 17 20  4  0
 18 23  1  0
 19 25  4  0
M  END
$$$$

 Created by Python create_sdf_string function

 25 28  0  0  0  0  0  0  0  0999 V2000
   13.1533   -5.2399   21.0682 C   0  0  0  0  0  0  0  0  0  0  0  0
   10.4729   -4.0295   17.6135 C   0  0  0  0  0  0  0  0  0  0  0  0
   10.4789   -4.3641   20.9564 C   0  0  0  0  0  0  0  0  0  0  0  0
    8.7421   -5.1412   16.3650 C   0  0  0  0  0  0  0  0  0  0  0  0
   11.4353   -2.9204   17.8044 C   0  0  0  0  0  0  0  0  0  0  0  0
   11.1529   -4.3028   22.1277 C   0  0  0  0  0  0  0  0  0  0  0  0
   11.1290   -4.8502   19.8052 C   0  0  0  0  0  0  0  0  0  0  0  0
   12.4329   -4.2159   24.4224 C   0  0  0  0  0  0  0  0  0  0  0  0
    3.4740   -9.0387   16.5022 C   0  0  0  0  0  0  0  0  0  0  0  0
    6.8384   -7.9290   17.5282 N   0  0  0  0  0  0  0  0  0  0  0  0
    9.4126   -5.9853   18.4899 C   0  0  0  0  0  0  0  0  0  0  0  0
    4.2064  -10.3242   18.3302 C   0  0  0  0  0  0  0  0  0  0  0  0
    9.6599   -4.1551   16.4796 N   0  0  0  0  0  0  0  0  0  0  0  0
    7.0644   -6.4612   15.7375 N   0  0  0  0  0  0  0  0  0  0  0  0
    5.3549   -9.6322   18.3190 C   0  0  0  0  0  0  0  0  0  0  0  0
   10.3704   -4.9638   18.6510 C   0  0  0  0  0  0  0  0  0  0  0  0
    5.5935   -8.6419   17.4234 C   0  0  0  0  0  0  0  0  0  0  0  0
   13.0726   -4.6648   23.3394 O   0  0  0  0  0  0  0  0  0  0  0  0
    8.5955   -6.0705   17.3996 C   0  0  0  0  0  0  0  0  0  0  0  0
    4.6223   -8.3832   16.5030 C   0  0  0  0  0  0  0  0  0  0  0  0
   12.4690   -5.2624   19.9024 C   0  0  0  0  0  0  0  0  0  0  0  0
    3.2548   -9.9919   17.4189 C   0  0  0  0  0  0  0  0  0  0  0  0
   12.4767   -4.7393   22.1790 C   0  0  0  0  0  0  0  0  0  0  0  0
    7.8593   -5.3772   15.3569 N   0  0  0  0  0  0  0  0  0  0  0  0
    7.4412   -6.9038   16.9283 C   0  0  0  0  0  0  0  0  0  0  0  0
  1 21  4  0
  1 23  4  0
  2  5  1  0
  2 13  4  0
  2 16  4  0
  3  6  4  0
  3  7  4  0
  4 13  4  0
  4 19  4  0
  4 24  4  0
  6 23  4  0
  7 16  1  0
  7 21  4  0
  8 18  1  0
  9 20  4  0
  9 22  4  0
 10 17  1  0
 10 25  1  0
 11 16  4  0
 11 19  4  0
 12 15  4  0
 12 22  4  0
 14 24  4  0
 14 25  4  0
 15 17  4  0
 17 20  4  0
 18 23  1  0
 19 25  4  0
M  END
$$$$

 Created by Python create_sdf_string function

 25 28  0  0  0  0  0  0  0  0999 V2000
   13.1533   -5.2399   21.0682 C   0  0  0  0  0  0  0  0  0  0  0  0
   10.4729   -4.0295   17.6135 C   0  0  0  0  0  0  0  0  0  0  0  0
   10.4789   -4.3641   20.9564 C   0  0  0  0  0  0  0  0  0  0  0  0
    8.7421   -5.1412   16.3650 C   0  0  0  0  0  0  0  0  0  0  0  0
   11.4353   -2.9204   17.8044 C   0  0  0  0  0  0  0  0  0  0  0  0
   11.1529   -4.3028   22.1277 C   0  0  0  0  0  0  0  0  0  0  0  0
   11.1290   -4.8502   19.8052 C   0  0  0  0  0  0  0  0  0  0  0  0
   12.4329   -4.2159   24.4224 C   0  0  0  0  0  0  0  0  0  0  0  0
    3.4740   -9.0387   16.5022 C   0  0  0  0  0  0  0  0  0  0  0  0
    6.8384   -7.9290   17.5282 N   0  0  0  0  0  0  0  0  0  0  0  0
    9.4126   -5.9853   18.4899 C   0  0  0  0  0  0  0  0  0  0  0  0
    4.2064  -10.3242   18.3302 C   0  0  0  0  0  0  0  0  0  0  0  0
    9.6599   -4.1551   16.4796 N   0  0  0  0  0  0  0  0  0  0  0  0
    7.0644   -6.4612   15.7375 N   0  0  0  0  0  0  0  0  0  0  0  0
    5.3549   -9.6322   18.3190 C   0  0  0  0  0  0  0  0  0  0  0  0
   10.3704   -4.9638   18.6510 C   0  0  0  0  0  0  0  0  0  0  0  0
    5.5935   -8.6419   17.4234 C   0  0  0  0  0  0  0  0  0  0  0  0
   13.0726   -4.6648   23.3394 O   0  0  0  0  0  0  0  0  0  0  0  0
    8.5955   -6.0705   17.3996 C   0  0  0  0  0  0  0  0  0  0  0  0
    4.6223   -8.3832   16.5030 C   0  0  0  0  0  0  0  0  0  0  0  0
   12.4690   -5.2624   19.9024 C   0  0  0  0  0  0  0  0  0  0  0  0
    3.2548   -9.9919   17.4189 C   0  0  0  0  0  0  0  0  0  0  0  0
   12.4767   -4.7393   22.1790 C   0  0  0  0  0  0  0  0  0  0  0  0
    7.8593   -5.3772   15.3569 N   0  0  0  0  0  0  0  0  0  0  0  0
    7.4412   -6.9038   16.9283 C   0  0  0  0  0  0  0  0  0  0  0  0
  1 21  4  0
  1 23  4  0
  2  5  1  0
  2 13  4  0
  2 16  4  0
  3  6  4  0
  3  7  4  0
  4 13  4  0
  4 19  4  0
  4 24  4  0
  6 23  4  0
  7 16  1  0
  7 21  4  0
  8 18  1  0
  9 20  4  0
  9 22  4  0
 10 17  1  0
 10 25  1  0
 11 16  4  0
 11 19  4  0
 12 15  4  0
 12 22  4  0
 14 24  4  0
 14 25  4  0
 15 17  4  0
 17 20  4  0
 18 23  1  0
 19 25  4  0
M  END
$$$$

 Created by Python create_sdf_string function

 25 28  0  0  0  0  0  0  0  0999 V2000
   13.1533   -5.2399   21.0682 C   0  0  0  0  0  0  0  0  0  0  0  0
   10.4729   -4.0295   17.6135 C   0  0  0  0  0  0  0  0  0  0  0  0
   10.4789   -4.3641   20.9564 C   0  0  0  0  0  0  0  0  0  0  0  0
    8.7421   -5.1412   16.3650 C   0  0  0  0  0  0  0  0  0  0  0  0
   11.4353   -2.9204   17.8044 C   0  0  0  0  0  0  0  0  0  0  0  0
   11.1529   -4.3028   22.1277 C   0  0  0  0  0  0  0  0  0  0  0  0
   11.1290   -4.8502   19.8052 C   0  0  0  0  0  0  0  0  0  0  0  0
   12.4329   -4.2159   24.4224 C   0  0  0  0  0  0  0  0  0  0  0  0
    3.4740   -9.0387   16.5022 C   0  0  0  0  0  0  0  0  0  0  0  0
    6.8384   -7.9290   17.5282 N   0  0  0  0  0  0  0  0  0  0  0  0
    9.4126   -5.9853   18.4899 C   0  0  0  0  0  0  0  0  0  0  0  0
    4.2064  -10.3242   18.3302 C   0  0  0  0  0  0  0  0  0  0  0  0
    9.6599   -4.1551   16.4796 N   0  0  0  0  0  0  0  0  0  0  0  0
    7.0644   -6.4612   15.7375 N   0  0  0  0  0  0  0  0  0  0  0  0
    5.3549   -9.6322   18.3190 C   0  0  0  0  0  0  0  0  0  0  0  0
   10.3704   -4.9638   18.6510 C   0  0  0  0  0  0  0  0  0  0  0  0
    5.5935   -8.6419   17.4234 C   0  0  0  0  0  0  0  0  0  0  0  0
   13.0726   -4.6648   23.3394 O   0  0  0  0  0  0  0  0  0  0  0  0
    8.5955   -6.0705   17.3996 C   0  0  0  0  0  0  0  0  0  0  0  0
    4.6223   -8.3832   16.5030 C   0  0  0  0  0  0  0  0  0  0  0  0
   12.4690   -5.2624   19.9024 C   0  0  0  0  0  0  0  0  0  0  0  0
    3.2548   -9.9919   17.4189 C   0  0  0  0  0  0  0  0  0  0  0  0
   12.4767   -4.7393   22.1790 C   0  0  0  0  0  0  0  0  0  0  0  0
    7.8593   -5.3772   15.3569 N   0  0  0  0  0  0  0  0  0  0  0  0
    7.4412   -6.9038   16.9283 C   0  0  0  0  0  0  0  0  0  0  0  0
  1 21  4  0
  1 23  4  0
  2  5  1  0
  2 13  4  0
  2 16  4  0
  3  6  4  0
  3  7  4  0
  4 13  4  0
  4 19  4  0
  4 24  4  0
  6 23  4  0
  7 16  1  0
  7 21  4  0
  8 18  1  0
  9 20  4  0
  9 22  4  0
 10 17  1  0
 10 25  1  0
 11 16  4  0
 11 19  4  0
 12 15  4  0
 12 22  4  0
 14 24  4  0
 14 25  4  0
 15 17  4  0
 17 20  4  0
 18 23  1  0
 19 25  4  0
M  END
$$$$

 Created by Python create_sdf_string function

 25 28  0  0  0  0  0  0  0  0999 V2000
   13.1533   -5.2399   21.0682 C   0  0  0  0  0  0  0  0  0  0  0  0
   10.4729   -4.0295   17.6135 C   0  0  0  0  0  0  0  0  0  0  0  0
   10.4789   -4.3641   20.9564 C   0  0  0  0  0  0  0  0  0  0  0  0
    8.7421   -5.1412   16.3650 C   0  0  0  0  0  0  0  0  0  0  0  0
   11.4353   -2.9204   17.8044 C   0  0  0  0  0  0  0  0  0  0  0  0
   11.1529   -4.3028   22.1277 C   0  0  0  0  0  0  0  0  0  0  0  0
   11.1290   -4.8502   19.8052 C   0  0  0  0  0  0  0  0  0  0  0  0
   12.4329   -4.2159   24.4224 C   0  0  0  0  0  0  0  0  0  0  0  0
    3.4740   -9.0387   16.5022 C   0  0  0  0  0  0  0  0  0  0  0  0
    6.8384   -7.9290   17.5282 N   0  0  0  0  0  0  0  0  0  0  0  0
    9.4126   -5.9853   18.4899 C   0  0  0  0  0  0  0  0  0  0  0  0
    4.2064  -10.3242   18.3302 C   0  0  0  0  0  0  0  0  0  0  0  0
    9.6599   -4.1551   16.4796 N   0  0  0  0  0  0  0  0  0  0  0  0
    7.0644   -6.4612   15.7375 N   0  0  0  0  0  0  0  0  0  0  0  0
    5.3549   -9.6322   18.3190 C   0  0  0  0  0  0  0  0  0  0  0  0
   10.3704   -4.9638   18.6510 C   0  0  0  0  0  0  0  0  0  0  0  0
    5.5935   -8.6419   17.4234 C   0  0  0  0  0  0  0  0  0  0  0  0
   13.0726   -4.6648   23.3394 O   0  0  0  0  0  0  0  0  0  0  0  0
    8.5955   -6.0705   17.3996 C   0  0  0  0  0  0  0  0  0  0  0  0
    4.6223   -8.3832   16.5030 C   0  0  0  0  0  0  0  0  0  0  0  0
   12.4690   -5.2624   19.9024 C   0  0  0  0  0  0  0  0  0  0  0  0
    3.2548   -9.9919   17.4189 C   0  0  0  0  0  0  0  0  0  0  0  0
   12.4767   -4.7393   22.1790 C   0  0  0  0  0  0  0  0  0  0  0  0
    7.8593   -5.3772   15.3569 N   0  0  0  0  0  0  0  0  0  0  0  0
    7.4412   -6.9038   16.9283 C   0  0  0  0  0  0  0  0  0  0  0  0
  1 21  4  0
  1 23  4  0
  2  5  1  0
  2 13  4  0
  2 16  4  0
  3  6  4  0
  3  7  4  0
  4 13  4  0
  4 19  4  0
  4 24  4  0
  6 23  4  0
  7 16  1  0
  7 21  4  0
  8 18  1  0
  9 20  4  0
  9 22  4  0
 10 17  1  0
 10 25  1  0
 11 16  4  0
 11 19  4  0
 12 15  4  0
 12 22  4  0
 14 24  4  0
 14 25  4  0
 15 17  4  0
 17 20  4  0
 18 23  1  0
 19 25  4  0
M  END
$$$$

 Created by Python create_sdf_string function

 25 28  0  0  0  0  0  0  0  0999 V2000
   13.1533   -5.2399   21.0682 C   0  0  0  0  0  0  0  0  0  0  0  0
   10.4729   -4.0295   17.6135 C   0  0  0  0  0  0  0  0  0  0  0  0
   10.4789   -4.3641   20.9564 C   0  0  0  0  0  0  0  0  0  0  0  0
    8.7421   -5.1412   16.3650 C   0  0  0  0  0  0  0  0  0  0  0  0
   11.4353   -2.9204   17.8044 C   0  0  0  0  0  0  0  0  0  0  0  0
   11.1529   -4.3028   22.1277 C   0  0  0  0  0  0  0  0  0  0  0  0
   11.1290   -4.8502   19.8052 C   0  0  0  0  0  0  0  0  0  0  0  0
   12.4329   -4.2159   24.4224 C   0  0  0  0  0  0  0  0  0  0  0  0
    3.4740   -9.0387   16.5022 C   0  0  0  0  0  0  0  0  0  0  0  0
    6.8384   -7.9290   17.5282 N   0  0  0  0  0  0  0  0  0  0  0  0
    9.4126   -5.9853   18.4899 C   0  0  0  0  0  0  0  0  0  0  0  0
    4.2064  -10.3242   18.3302 C   0  0  0  0  0  0  0  0  0  0  0  0
    9.6599   -4.1551   16.4796 N   0  0  0  0  0  0  0  0  0  0  0  0
    7.0644   -6.4612   15.7375 N   0  0  0  0  0  0  0  0  0  0  0  0
    5.3549   -9.6322   18.3190 C   0  0  0  0  0  0  0  0  0  0  0  0
   10.3704   -4.9638   18.6510 C   0  0  0  0  0  0  0  0  0  0  0  0
    5.5935   -8.6419   17.4234 C   0  0  0  0  0  0  0  0  0  0  0  0
   13.0726   -4.6648   23.3394 O   0  0  0  0  0  0  0  0  0  0  0  0
    8.5955   -6.0705   17.3996 C   0  0  0  0  0  0  0  0  0  0  0  0
    4.6223   -8.3832   16.5030 C   0  0  0  0  0  0  0  0  0  0  0  0
   12.4690   -5.2624   19.9024 C   0  0  0  0  0  0  0  0  0  0  0  0
    3.2548   -9.9919   17.4189 C   0  0  0  0  0  0  0  0  0  0  0  0
   12.4767   -4.7393   22.1790 C   0  0  0  0  0  0  0  0  0  0  0  0
    7.8593   -5.3772   15.3569 N   0  0  0  0  0  0  0  0  0  0  0  0
    7.4412   -6.9038   16.9283 C   0  0  0  0  0  0  0  0  0  0  0  0
  1 21  4  0
  1 23  4  0
  2  5  1  0
  2 13  4  0
  2 16  4  0
  3  6  4  0
  3  7  4  0
  4 13  4  0
  4 19  4  0
  4 24  4  0
  6 23  4  0
  7 16  1  0
  7 21  4  0
  8 18  1  0
  9 20  4  0
  9 22  4  0
 10 17  1  0
 10 25  1  0
 11 16  4  0
 11 19  4  0
 12 15  4  0
 12 22  4  0
 14 24  4  0
 14 25  4  0
 15 17  4  0
 17 20  4  0
 18 23  1  0
 19 25  4  0
M  END
$$$$

 Created by Python create_sdf_string function

 25 28  0  0  0  0  0  0  0  0999 V2000
   13.1533   -5.2399   21.0682 C   0  0  0  0  0  0  0  0  0  0  0  0
   10.4729   -4.0295   17.6135 C   0  0  0  0  0  0  0  0  0  0  0  0
   10.4789   -4.3641   20.9564 C   0  0  0  0  0  0  0  0  0  0  0  0
    8.7421   -5.1412   16.3650 C   0  0  0  0  0  0  0  0  0  0  0  0
   11.4353   -2.9204   17.8044 C   0  0  0  0  0  0  0  0  0  0  0  0
   11.1529   -4.3028   22.1277 C   0  0  0  0  0  0  0  0  0  0  0  0
   11.1290   -4.8502   19.8052 C   0  0  0  0  0  0  0  0  0  0  0  0
   12.4329   -4.2159   24.4224 C   0  0  0  0  0  0  0  0  0  0  0  0
    3.4740   -9.0387   16.5022 C   0  0  0  0  0  0  0  0  0  0  0  0
    6.8384   -7.9290   17.5282 N   0  0  0  0  0  0  0  0  0  0  0  0
    9.4126   -5.9853   18.4899 C   0  0  0  0  0  0  0  0  0  0  0  0
    4.2064  -10.3242   18.3302 C   0  0  0  0  0  0  0  0  0  0  0  0
    9.6599   -4.1551   16.4796 N   0  0  0  0  0  0  0  0  0  0  0  0
    7.0644   -6.4612   15.7375 N   0  0  0  0  0  0  0  0  0  0  0  0
    5.3549   -9.6322   18.3190 C   0  0  0  0  0  0  0  0  0  0  0  0
   10.3704   -4.9638   18.6510 C   0  0  0  0  0  0  0  0  0  0  0  0
    5.5935   -8.6419   17.4234 C   0  0  0  0  0  0  0  0  0  0  0  0
   13.0726   -4.6648   23.3394 O   0  0  0  0  0  0  0  0  0  0  0  0
    8.5955   -6.0705   17.3996 C   0  0  0  0  0  0  0  0  0  0  0  0
    4.6223   -8.3832   16.5030 C   0  0  0  0  0  0  0  0  0  0  0  0
   12.4690   -5.2624   19.9024 C   0  0  0  0  0  0  0  0  0  0  0  0
    3.2548   -9.9919   17.4189 C   0  0  0  0  0  0  0  0  0  0  0  0
   12.4767   -4.7393   22.1790 C   0  0  0  0  0  0  0  0  0  0  0  0
    7.8593   -5.3772   15.3569 N   0  0  0  0  0  0  0  0  0  0  0  0
    7.4412   -6.9038   16.9283 C   0  0  0  0  0  0  0  0  0  0  0  0
  1 21  4  0
  1 23  4  0
  2  5  1  0
  2 13  4  0
  2 16  4  0
  3  6  4  0
  3  7  4  0
  4 13  4  0
  4 19  4  0
  4 24  4  0
  6 23  4  0
  7 16  1  0
  7 21  4  0
  8 18  1  0
  9 20  4  0
  9 22  4  0
 10 17  1  0
 10 25  1  0
 11 16  4  0
 11 19  4  0
 12 15  4  0
 12 22  4  0
 14 24  4  0
 14 25  4  0
 15 17  4  0
 17 20  4  0
 18 23  1  0
 19 25  4  0
M  END
$$$$

 Created by Python create_sdf_string function

 25 28  0  0  0  0  0  0  0  0999 V2000
   13.1533   -5.2399   21.0682 C   0  0  0  0  0  0  0  0  0  0  0  0
   10.4729   -4.0295   17.6135 C   0  0  0  0  0  0  0  0  0  0  0  0
   10.4789   -4.3641   20.9564 C   0  0  0  0  0  0  0  0  0  0  0  0
    8.7421   -5.1412   16.3650 C   0  0  0  0  0  0  0  0  0  0  0  0
   11.4353   -2.9204   17.8044 C   0  0  0  0  0  0  0  0  0  0  0  0
   11.1529   -4.3028   22.1277 C   0  0  0  0  0  0  0  0  0  0  0  0
   11.1290   -4.8502   19.8052 C   0  0  0  0  0  0  0  0  0  0  0  0
   12.4329   -4.2159   24.4224 C   0  0  0  0  0  0  0  0  0  0  0  0
    3.4740   -9.0387   16.5022 C   0  0  0  0  0  0  0  0  0  0  0  0
    6.8384   -7.9290   17.5282 N   0  0  0  0  0  0  0  0  0  0  0  0
    9.4126   -5.9853   18.4899 C   0  0  0  0  0  0  0  0  0  0  0  0
    4.2064  -10.3242   18.3302 C   0  0  0  0  0  0  0  0  0  0  0  0
    9.6599   -4.1551   16.4796 N   0  0  0  0  0  0  0  0  0  0  0  0
    7.0644   -6.4612   15.7375 N   0  0  0  0  0  0  0  0  0  0  0  0
    5.3549   -9.6322   18.3190 C   0  0  0  0  0  0  0  0  0  0  0  0
   10.3704   -4.9638   18.6510 C   0  0  0  0  0  0  0  0  0  0  0  0
    5.5935   -8.6419   17.4234 C   0  0  0  0  0  0  0  0  0  0  0  0
   13.0726   -4.6648   23.3394 O   0  0  0  0  0  0  0  0  0  0  0  0
    8.5955   -6.0705   17.3996 C   0  0  0  0  0  0  0  0  0  0  0  0
    4.6223   -8.3832   16.5030 C   0  0  0  0  0  0  0  0  0  0  0  0
   12.4690   -5.2624   19.9024 C   0  0  0  0  0  0  0  0  0  0  0  0
    3.2548   -9.9919   17.4189 C   0  0  0  0  0  0  0  0  0  0  0  0
   12.4767   -4.7393   22.1790 C   0  0  0  0  0  0  0  0  0  0  0  0
    7.8593   -5.3772   15.3569 N   0  0  0  0  0  0  0  0  0  0  0  0
    7.4412   -6.9038   16.9283 C   0  0  0  0  0  0  0  0  0  0  0  0
  1 21  4  0
  1 23  4  0
  2  5  1  0
  2 13  4  0
  2 16  4  0
  3  6  4  0
  3  7  4  0
  4 13  4  0
  4 19  4  0
  4 24  4  0
  6 23  4  0
  7 16  1  0
  7 21  4  0
  8 18  1  0
  9 20  4  0
  9 22  4  0
 10 17  1  0
 10 25  1  0
 11 16  4  0
 11 19  4  0
 12 15  4  0
 12 22  4  0
 14 24  4  0
 14 25  4  0
 15 17  4  0
 17 20  4  0
 18 23  1  0
 19 25  4  0
M  END
$$$$

 Created by Python create_sdf_string function

 25 28  0  0  0  0  0  0  0  0999 V2000
   13.1533   -5.2399   21.0682 C   0  0  0  0  0  0  0  0  0  0  0  0
   10.4729   -4.0295   17.6135 C   0  0  0  0  0  0  0  0  0  0  0  0
   10.4789   -4.3641   20.9564 C   0  0  0  0  0  0  0  0  0  0  0  0
    8.7421   -5.1412   16.3650 C   0  0  0  0  0  0  0  0  0  0  0  0
   11.4353   -2.9204   17.8044 C   0  0  0  0  0  0  0  0  0  0  0  0
   11.1529   -4.3028   22.1277 C   0  0  0  0  0  0  0  0  0  0  0  0
   11.1290   -4.8502   19.8052 C   0  0  0  0  0  0  0  0  0  0  0  0
   12.4329   -4.2159   24.4224 C   0  0  0  0  0  0  0  0  0  0  0  0
    3.4740   -9.0387   16.5022 C   0  0  0  0  0  0  0  0  0  0  0  0
    6.8384   -7.9290   17.5282 N   0  0  0  0  0  0  0  0  0  0  0  0
    9.4126   -5.9853   18.4899 C   0  0  0  0  0  0  0  0  0  0  0  0
    4.2064  -10.3242   18.3302 C   0  0  0  0  0  0  0  0  0  0  0  0
    9.6599   -4.1551   16.4796 N   0  0  0  0  0  0  0  0  0  0  0  0
    7.0644   -6.4612   15.7375 N   0  0  0  0  0  0  0  0  0  0  0  0
    5.3549   -9.6322   18.3190 C   0  0  0  0  0  0  0  0  0  0  0  0
   10.3704   -4.9638   18.6510 C   0  0  0  0  0  0  0  0  0  0  0  0
    5.5935   -8.6419   17.4234 C   0  0  0  0  0  0  0  0  0  0  0  0
   13.0726   -4.6648   23.3394 O   0  0  0  0  0  0  0  0  0  0  0  0
    8.5955   -6.0705   17.3996 C   0  0  0  0  0  0  0  0  0  0  0  0
    4.6223   -8.3832   16.5030 C   0  0  0  0  0  0  0  0  0  0  0  0
   12.4690   -5.2624   19.9024 C   0  0  0  0  0  0  0  0  0  0  0  0
    3.2548   -9.9919   17.4189 C   0  0  0  0  0  0  0  0  0  0  0  0
   12.4767   -4.7393   22.1790 C   0  0  0  0  0  0  0  0  0  0  0  0
    7.8593   -5.3772   15.3569 N   0  0  0  0  0  0  0  0  0  0  0  0
    7.4412   -6.9038   16.9283 C   0  0  0  0  0  0  0  0  0  0  0  0
  1 21  4  0
  1 23  4  0
  2  5  1  0
  2 13  4  0
  2 16  4  0
  3  6  4  0
  3  7  4  0
  4 13  4  0
  4 19  4  0
  4 24  4  0
  6 23  4  0
  7 16  1  0
  7 21  4  0
  8 18  1  0
  9 20  4  0
  9 22  4  0
 10 17  1  0
 10 25  1  0
 11 16  4  0
 11 19  4  0
 12 15  4  0
 12 22  4  0
 14 24  4  0
 14 25  4  0
 15 17  4  0
 17 20  4  0
 18 23  1  0
 19 25  4  0
M  END
$$$$

 Created by Python create_sdf_string function

 25 28  0  0  0  0  0  0  0  0999 V2000
   13.1533   -5.2399   21.0682 C   0  0  0  0  0  0  0  0  0  0  0  0
   10.4729   -4.0295   17.6135 C   0  0  0  0  0  0  0  0  0  0  0  0
   10.4789   -4.3641   20.9564 C   0  0  0  0  0  0  0  0  0  0  0  0
    8.7421   -5.1412   16.3650 C   0  0  0  0  0  0  0  0  0  0  0  0
   11.4353   -2.9204   17.8044 C   0  0  0  0  0  0  0  0  0  0  0  0
   11.1529   -4.3028   22.1277 C   0  0  0  0  0  0  0  0  0  0  0  0
   11.1290   -4.8502   19.8052 C   0  0  0  0  0  0  0  0  0  0  0  0
   12.4329   -4.2159   24.4224 C   0  0  0  0  0  0  0  0  0  0  0  0
    3.4740   -9.0387   16.5022 C   0  0  0  0  0  0  0  0  0  0  0  0
    6.8384   -7.9290   17.5282 N   0  0  0  0  0  0  0  0  0  0  0  0
    9.4126   -5.9853   18.4899 C   0  0  0  0  0  0  0  0  0  0  0  0
    4.2064  -10.3242   18.3302 C   0  0  0  0  0  0  0  0  0  0  0  0
    9.6599   -4.1551   16.4796 N   0  0  0  0  0  0  0  0  0  0  0  0
    7.0644   -6.4612   15.7375 N   0  0  0  0  0  0  0  0  0  0  0  0
    5.3549   -9.6322   18.3190 C   0  0  0  0  0  0  0  0  0  0  0  0
   10.3704   -4.9638   18.6510 C   0  0  0  0  0  0  0  0  0  0  0  0
    5.5935   -8.6419   17.4234 C   0  0  0  0  0  0  0  0  0  0  0  0
   13.0726   -4.6648   23.3394 O   0  0  0  0  0  0  0  0  0  0  0  0
    8.5955   -6.0705   17.3996 C   0  0  0  0  0  0  0  0  0  0  0  0
    4.6223   -8.3832   16.5030 C   0  0  0  0  0  0  0  0  0  0  0  0
   12.4690   -5.2624   19.9024 C   0  0  0  0  0  0  0  0  0  0  0  0
    3.2548   -9.9919   17.4189 C   0  0  0  0  0  0  0  0  0  0  0  0
   12.4767   -4.7393   22.1790 C   0  0  0  0  0  0  0  0  0  0  0  0
    7.8593   -5.3772   15.3569 N   0  0  0  0  0  0  0  0  0  0  0  0
    7.4412   -6.9038   16.9283 C   0  0  0  0  0  0  0  0  0  0  0  0
  1 21  4  0
  1 23  4  0
  2  5  1  0
  2 13  4  0
  2 16  4  0
  3  6  4  0
  3  7  4  0
  4 13  4  0
  4 19  4  0
  4 24  4  0
  6 23  4  0
  7 16  1  0
  7 21  4  0
  8 18  1  0
  9 20  4  0
  9 22  4  0
 10 17  1  0
 10 25  1  0
 11 16  4  0
 11 19  4  0
 12 15  4  0
 12 22  4  0
 14 24  4  0
 14 25  4  0
 15 17  4  0
 17 20  4  0
 18 23  1  0
 19 25  4  0
M  END
